@<TRIPOS>MOLECULE
V4M
   50    53     1     0     0
SMALL
bcc


@<TRIPOS>ATOM
      1 C1         -15.4290   130.0100    26.7170 ca       501 V4M      -0.132000
      2 C2         -16.1720   131.1080    26.3290 ca       501 V4M      -0.098300
      3 C3         -17.4690   131.2790    26.7370 ca       501 V4M      -0.104000
      4 C4         -16.0340   129.0710    27.5560 ca       501 V4M      -0.054000
      5 C5         -17.3560   129.2650    27.9640 ca       501 V4M      -0.147600
      6 C6         -18.0480   130.3480    27.5590 ca       501 V4M      -0.071300
      7 N1         -19.4740   129.0580    28.9490 n        501 V4M      -0.465800
      8 N2         -23.1490   128.7120    29.1550 ns       501 V4M      -0.598500
      9 N3         -16.5600   132.6560    24.5360 ns       501 V4M      -0.536900
     10 O1         -17.8420   127.4020    29.3370 o        501 V4M      -0.599500
     11 C7         -19.4930   130.3390    28.1460 c3       501 V4M       0.120300
     12 C8         -18.1790   128.4180    28.8290 c        501 V4M       0.720100
     13 C9         -20.6570   128.6460    29.6770 c3       501 V4M       0.050700
     14 C10        -21.0230   129.6800    30.7550 c3       501 V4M      -0.088400
     15 C11        -22.2420   129.1320    31.5320 c3       501 V4M      -0.156400
     16 C12        -23.3990   129.0270    30.5310 c        501 V4M       0.701500
     17 C13        -21.8130   128.4740    28.7070 c        501 V4M       0.671500
     18 C14        -15.5300   132.1400    25.4110 c3       501 V4M       0.126300
     19 C15        -16.4470   132.5210    23.0980 c        501 V4M       0.620100
     20 O2         -21.6160   128.1230    27.5930 o        501 V4M      -0.601500
     21 C16        -17.5700   133.0860    22.2310 c3       501 V4M       0.405900
     22 C17        -17.1330   133.2730    20.7770 ca       501 V4M      -0.165300
     23 C18        -15.9820   133.9840    20.4660 ca       501 V4M      -0.080000
     24 C19        -15.6030   134.1470    19.1440 ca       501 V4M      -0.130500
     25 C20        -16.3790   133.6080    18.1310 ca       501 V4M       0.038400
     26 C21        -17.5320   132.9030    18.4370 ca       501 V4M      -0.130500
     27 C22        -17.9090   132.7380    19.7600 ca       501 V4M      -0.080000
     28 F1         -18.6380   132.2370    22.2700 f        501 V4M      -0.221300
     29 F2         -17.9510   134.2920    22.7450 f        501 V4M      -0.221300
     30 O3         -24.5100   129.2180    30.8940 o        501 V4M      -0.601500
     31 O4         -15.5110   131.9730    22.6200 o        501 V4M      -0.578100
     32 Cl1        -15.8910   133.8230    16.4280 cl       501 V4M      -0.081400
     33 H1         -14.4100   129.8810    26.3820 ha       501 V4M       0.139000
     34 H3         -18.0310   132.1420    26.4130 ha       501 V4M       0.164000
     35 H4         -15.4840   128.2020    27.8870 ha       501 V4M       0.157000
     36 H2         -23.9170   128.6580    28.5020 hn       501 V4M       0.339500
     37 HN3        -17.3670   133.1160    24.9320 hn       501 V4M       0.323500
     38 H72        -19.6720   131.2060    28.7820 h1       501 V4M       0.076700
     39 H73        -20.2340   130.2850    27.3490 h1       501 V4M       0.076700
     40 H9         -20.4580   127.6890    30.1600 h1       501 V4M       0.113700
     41 H102       -21.2770   130.6310    30.2870 hc       501 V4M       0.069200
     42 H103       -20.1830   129.8170    31.4360 hc       501 V4M       0.069200
     43 H112       -22.0130   128.1490    31.9440 hc       501 V4M       0.089200
     44 H113       -22.5080   129.8180    32.3360 hc       501 V4M       0.089200
     45 H142       -14.7430   131.6720    24.8200 h1       501 V4M       0.076700
     46 H143       -15.1110   132.9520    26.0060 h1       501 V4M       0.076700
     47 H18        -15.3810   134.4100    21.2560 ha       501 V4M       0.160000
     48 H19        -14.7030   134.6940    18.9030 ha       501 V4M       0.155000
     49 H21        -18.1360   132.4830    17.6460 ha       501 V4M       0.155000
     50 H22        -18.8090   132.1920    20.0000 ha       501 V4M       0.160000
@<TRIPOS>BOND
     1     1     2 ar  
     2     1     4 ar  
     3     1    33 1   
     4     2     3 ar  
     5     2    18 1   
     6     3     6 ar  
     7     3    34 1   
     8     4     5 ar  
     9     4    35 1   
    10     5     6 ar  
    11     5    12 1   
    12     6    11 1   
    13     7    11 1   
    14     7    12 1   
    15     7    13 1   
    16     8    16 1   
    17     8    17 1   
    18     8    36 1   
    19     9    18 1   
    20     9    19 1   
    21     9    37 1   
    22    10    12 2   
    23    11    38 1   
    24    11    39 1   
    25    13    14 1   
    26    13    17 1   
    27    13    40 1   
    28    14    15 1   
    29    14    41 1   
    30    14    42 1   
    31    15    16 1   
    32    15    43 1   
    33    15    44 1   
    34    16    30 2   
    35    17    20 2   
    36    18    45 1   
    37    18    46 1   
    38    19    21 1   
    39    19    31 2   
    40    21    22 1   
    41    21    28 1   
    42    21    29 1   
    43    22    23 ar  
    44    22    27 ar  
    45    23    24 ar  
    46    23    47 1   
    47    24    25 ar  
    48    24    48 1   
    49    25    26 ar  
    50    25    32 1   
    51    26    27 ar  
    52    26    49 1   
    53    27    50 1   
@<TRIPOS>SUBSTRUCTURE
     1 V4M         1 TEMP              0 ****  ****    0 ROOT
