@<TRIPOS>MOLECULE
J18
77 83 1 0 0
SMALL
AMBER ff14SB


@<TRIPOS>ATOM
      1 C1        -15.4290  130.0100   26.7170 C.ar      1 V4M   -0.0608
      2 C2        -16.1720  131.1080   26.3290 C.ar      1 V4M   -0.0539
      3 C3        -17.4690  131.2790   26.7370 C.ar      1 V4M   -0.0102
      4 C4        -16.0340  129.0710   27.5560 C.ar      1 V4M   -0.0493
      5 C5        -17.3560  129.2650   27.9640 C.ar      1 V4M    0.0427
      6 C6        -18.0480  130.3480   27.5590 C.ar      1 V4M   -0.0101
      7 N1        -19.4740  129.0580   28.9490 N.am      1 V4M   -0.2814
      8 N2        -23.1490  128.7120   29.1550 N.am      1 V4M   -0.2541
      9 O1        -17.8420  127.4020   29.3370 O.2       1 V4M   -0.2717
     10 C7        -19.4930  130.3390   28.1460 C.3       1 V4M    0.0417
     11 C8        -18.1790  128.4180   28.8290 C.2       1 V4M    0.2468
     12 C9        -20.6570  128.6460   29.6770 C.3       1 V4M    0.1037
     13 C10       -21.0230  129.6800   30.7550 C.3       1 V4M   -0.0169
     14 C11       -22.2420  129.1320   31.5320 C.3       1 V4M    0.0270
     15 C12       -23.3990  129.0270   30.5310 C.2       1 V4M    0.2182
     16 C13       -21.8130  128.4740   28.7070 C.2       1 V4M    0.2388
     17 O2        -21.6160  128.1230   27.5930 O.2       1 V4M   -0.2751
     18 O3        -24.5100  129.2180   30.8940 O.2       1 V4M   -0.2773
     19 H1        -14.4105  129.8813   26.3817 H         1 V4M    0.0623
     20 C23       -18.2108  132.5097   26.3124 C.ar      1 V4M    0.0123
     21 H4        -15.4842  128.2022   27.8865 H         1 V4M    0.0631
     22 H2        -23.9175  128.6582   28.5018 H         1 V4M    0.1586
     23 H72       -19.6715  131.2064   28.7815 H         1 V4M    0.0521
     24 H73       -20.2341  130.2847   27.3486 H         1 V4M    0.0521
     25 H9        -20.4576  127.6895   30.1601 H         1 V4M    0.0608
     26 H102      -20.1825  129.8222   31.4343 H         1 V4M    0.0296
     27 H103      -21.2815  130.6284   30.2841 H         1 V4M    0.0296
     28 H112      -22.5073  129.8126   32.3410 H         1 V4M    0.0366
     29 H113      -22.0113  128.1466   31.9369 H         1 V4M    0.0366
     30 C24       -18.7353  133.3932   27.2874 C.ar      1 V4M   -0.0517
     31 C27       -19.3930  134.5766   26.9187 C.ar      1 V4M   -0.0615
     32 H242      -18.6100  133.1673   28.3421 H         1 V4M    0.0630
     33 C25       -18.3639  132.8582   24.9431 C.ar      1 V4M    0.0834
     34 C26       -19.0122  134.0564   24.5764 C.ar      1 V4M   -0.0311
     35 O5        -17.8706  131.9649   24.0072 O.3       1 V4M   -0.3358
     36 H262      -19.1277  134.3342   23.5345 H         1 V4M    0.0651
     37 C28       -19.5281  134.9097   25.5635 C.ar      1 V4M   -0.0596
     38 H272      -19.7865  135.2405   27.6834 H         1 V4M    0.0623
     39 H281      -20.0313  135.8292   25.2779 H         1 V4M    0.0624
     40 C29       -18.0433  132.0862   22.5778 C.3       1 V4M    0.1316
     41 H291      -17.5098  131.2701   22.0760 H         1 V4M    0.0675
     42 H292      -17.6131  133.0323   22.2280 H         1 V4M    0.0675
     43 C30       -19.5107  132.0161   22.1305 C.2       1 V4M    0.2576
     44 N4        -19.7261  132.4811   20.8419 N.am      1 V4M   -0.2052
     45 O6        -20.4162  131.6526   22.8639 O.2       1 V4M   -0.2732
     46 N5        -20.9737  132.5841   20.2987 N.2       1 V4M   -0.1876
     47 H42       -18.9216  132.7632   20.2963 H         1 V4M    0.1787
     48 C31       -21.6263  133.6880   20.4573 C.2       1 V4M    0.0731
     49 C14       -23.0625  133.8102   20.2265 C.ar      1 V4M    0.1104
     50 HC        -15.7194  131.8502   25.6881 H         1 V4M    0.0629
     51 N3        -23.8205  132.7832   19.8291 N.ar      1 V4M   -0.1789
     52 C15       -23.8524  134.9988   20.4243 C.ar      1 V4M    0.0265
     53 C17       -23.5288  136.3013   20.8278 C.ar      1 V4M   -0.0507
     54 C16       -25.1325  134.6317   20.1277 C.ar      1 V4M    0.0606
     55 N6        -25.0981  133.2953   19.7707 N.ar      1 V4M   -0.2199
     56 C21       -26.2398  132.4510   19.3913 C.3       1 V4M    0.0596
     57 C18       -26.2037  135.5311   20.2063 C.ar      1 V4M   -0.0383
     58 H172      -22.5075  136.5847   21.0625 H         1 V4M    0.0631
     59 H181      -27.2179  135.2274   19.9681 H         1 V4M    0.0644
     60 C20       -25.9110  136.8518   20.6075 C.ar      1 V4M   -0.0603
     61 H201      -26.7120  137.5820   20.6799 H         1 V4M    0.0623
     62 C22       -26.8560  132.8344   18.0543 C.ar      1 V4M   -0.0286
     63 C32       -28.1876  133.2841   17.9871 C.ar      1 V4M   -0.0574
     64 C33       -26.0978  132.7372   16.8727 C.ar      1 V4M   -0.0574
     65 H321      -28.7848  133.3579   18.8915 H         1 V4M    0.0626
     66 C34       -28.7522  133.6424   16.7519 C.ar      1 V4M   -0.0619
     67 H331      -25.0698  132.3874   16.9149 H         1 V4M    0.0626
     68 C35       -26.6624  133.0946   15.6372 C.ar      1 V4M   -0.0619
     69 C36       -27.9893  133.5498   15.5769 C.ar      1 V4M   -0.0623
     70 H342      -29.7792  133.9907   16.7062 H         1 V4M    0.0623
     71 H352      -26.0718  133.0192   14.7293 H         1 V4M    0.0623
     72 H361      -28.4254  133.8282   14.6222 H         1 V4M    0.0623
     73 C19       -24.5837  137.2336   20.9168 C.ar      1 V4M   -0.0615
     74 H191      -24.3750  138.2540   21.2257 H         1 V4M    0.0623
     75 HC1       -21.1478  134.5772   20.8703 H         1 V4M    0.0881
     76 HC2       -25.9034  131.4074   19.3421 H         1 V4M    0.0542
     77 HC3       -26.9953  132.5144   20.1848 H         1 V4M    0.0542
@<TRIPOS>BOND
     1    1    2 ar
     2    1    4 ar
     3    2    3 ar
     4    3    6 ar
     5    4    5 ar
     6    5    6 ar
     7    5   11 1
     8    6   10 1
     9    7   10 1
    10    7   11 am
    11    7   12 1
    12    8   15 am
    13    8   16 am
    14    9   11 2
    15   12   13 1
    16   12   16 1
    17   13   14 1
    18   14   15 1
    19   15   18 2
    20   16   17 2
    21   19    1 1
    22   20    3 1
    23   21    4 1
    24   22    8 1
    25   23   10 1
    26   24   10 1
    27   25   12 1
    28   26   13 1
    29   27   13 1
    30   28   14 1
    31   29   14 1
    32   30   20 ar
    33   31   30 ar
    34   32   30 1
    35   33   20 ar
    36   34   33 ar
    37   35   33 1
    38   36   34 1
    39   37   31 ar
    40   38   31 1
    41   37   34 ar
    42   39   37 1
    43   40   35 1
    44   41   40 1
    45   42   40 1
    46   43   40 1
    47   44   43 am
    48   45   43 2
    49   46   44 1
    50   47   44 1
    51   48   46 2
    52   49   48 1
    53   50    2 1
    54   51   49 ar
    55   52   49 ar
    56   53   52 ar
    57   54   52 ar
    58   55   51 ar
    59   56   55 1
    60   57   54 ar
    61   55   54 ar
    62   58   53 1
    63   59   57 1
    64   60   57 ar
    65   61   60 1
    66   62   56 1
    67   63   62 ar
    68   64   62 ar
    69   65   63 1
    70   66   63 ar
    71   67   64 1
    72   68   64 ar
    73   69   66 ar
    74   70   66 1
    75   71   68 1
    76   69   68 ar
    77   72   69 1
    78   73   53 ar
    79   74   73 1
    80   73   60 ar
    81   75   48 1
    82   76   56 1
    83   77   56 1
@<TRIPOS>SUBSTRUCTURE
     1 V4M     1 RESIDUE           4 C     V4M     0 ROOT
