@<TRIPOS>MOLECULE
V4M
   77    83     1     0     0
SMALL
bcc


@<TRIPOS>ATOM
      1 C1         -15.3830   130.2720    26.5270 ca         1 V4M      -0.149000
      2 C2         -16.1890   131.3280    26.1470 ca         1 V4M      -0.098000
      3 C3         -17.4760   131.4500    26.5990 cp         1 V4M      -0.033000
      4 C4         -15.9150   129.3250    27.4060 ca         1 V4M      -0.050000
      5 C5         -17.2280   129.4680    27.8590 ca         1 V4M      -0.160600
      6 C6         -17.9830   130.5110    27.4590 ca         1 V4M      -0.043300
      7 N1         -19.2980   129.1880    28.9250 n          1 V4M      -0.462800
      8 N2         -22.9550   128.9240    29.3950 ns         1 V4M      -0.598500
      9 O1         -17.5800   127.6140    29.2840 o          1 V4M      -0.602500
     10 C7         -19.4040   130.4500    28.1000 c3         1 V4M       0.113300
     11 C8         -17.9810   128.6040    28.7700 c          1 V4M       0.718100
     12 C9         -20.4340   128.7390    29.7050 c3         1 V4M       0.050700
     13 C10        -20.6780   129.6720    30.9030 c3         1 V4M      -0.088400
     14 C11        -21.8510   129.0840    31.7200 c3         1 V4M      -0.155400
     15 C12        -23.0860   129.1090    30.8110 c          1 V4M       0.701500
     16 C13        -21.6680   128.6940    28.8200 c          1 V4M       0.671500
     17 O2         -21.5710   128.4490    27.6650 o          1 V4M      -0.601500
     18 O3         -24.1580   129.2940    31.2800 o          1 V4M      -0.602500
     19 H1         -14.3730   130.1820    26.1570 ha         1 V4M       0.141000
     20 C23        -18.2880   132.6380    26.1790 cp         1 V4M      -0.059000
     21 H4         -15.3150   128.4880    27.7320 ha         1 V4M       0.157000
     22 H2         -23.7740   128.9550    28.8050 hn         1 V4M       0.338500
     23 H72        -19.5980   131.3220    28.7250 h1         1 V4M       0.087700
     24 H73        -20.1700   130.3470    27.3320 h1         1 V4M       0.087700
     25 H9         -20.2310   127.7350    30.0760 h1         1 V4M       0.112700
     26 H102       -19.7830   129.7240    31.5220 hc         1 V4M       0.070700
     27 H103       -20.9390   130.6690    30.5470 hc         1 V4M       0.070700
     28 H112       -22.0280   129.6890    32.6090 hc         1 V4M       0.089200
     29 H113       -21.6240   128.0570    32.0090 hc         1 V4M       0.089200
     30 C24        -19.5290   132.4520    25.5230 ca         1 V4M      -0.112000
     31 C27        -20.3320   133.5450    25.1610 ca         1 V4M      -0.129000
     32 H242       -19.8830   131.4470    25.3130 ha         1 V4M       0.141000
     33 C25        -17.8770   133.9670    26.4680 ca         1 V4M       0.080100
     34 C26        -18.6930   135.0620    26.1160 ca         1 V4M      -0.116000
     35 O5         -16.6460   134.1260    27.0820 os         1 V4M      -0.321900
     36 H262       -18.3910   136.0800    26.3390 ha         1 V4M       0.177000
     37 C28        -19.9150   134.8490    25.4610 ca         1 V4M      -0.118000
     38 H272       -21.2810   133.3790    24.6590 ha         1 V4M       0.138000
     39 H281       -20.5390   135.6950    25.1870 ha         1 V4M       0.142000
     40 C29        -15.8120   135.3010    26.9710 c3         1 V4M       0.058400
     41 H291       -15.4500   135.3930    25.9400 h1         1 V4M       0.080200
     42 H292       -14.9380   135.2020    27.6260 h1         1 V4M       0.080200
     43 C30        -16.5440   136.6050    27.3180 c          1 V4M       0.654100
     44 N4         -16.4160   137.5920    26.3520 ns         1 V4M      -0.348900
     45 O6         -17.1250   136.7850    28.3760 o          1 V4M      -0.523100
     46 N5         -16.9180   138.8510    26.5190 n2         1 V4M      -0.391300
     47 H42        -15.9200   137.3640    25.5000 hn         1 V4M       0.290500
     48 C31        -16.6870   139.7330    25.6040 ce         1 V4M       0.302900
     49 C14        -16.8700   141.1670    25.8080 cc         1 V4M       0.301600
     50 HC         -15.7930   132.0760    25.4760 ha         1 V4M       0.141000
     51 N3         -18.0760   141.7440    25.8420 nd         1 V4M      -0.458100
     52 C15        -15.8220   142.1290    26.0360 ca         1 V4M      -0.198900
     53 C17        -14.4260   142.0210    26.0950 ca         1 V4M      -0.070000
     54 C16        -16.4630   143.3210    26.2140 ca         1 V4M      -0.048200
     55 N6         -17.8190   143.0730    26.0940 na         1 V4M       0.096900
     56 C21        -18.9110   144.0470    26.2320 c3         1 V4M       0.107600
     57 C18        -15.7680   144.5110    26.4650 ca         1 V4M      -0.133000
     58 H172       -13.9250   141.0680    25.9530 ha         1 V4M       0.133000
     59 H181       -16.2880   145.4530    26.6050 ha         1 V4M       0.138000
     60 C20        -14.3600   144.4360    26.5280 ca         1 V4M      -0.102000
     61 H201       -13.7820   145.3360    26.7190 ha         1 V4M       0.134000
     62 C22        -19.7730   144.1680    24.9840 ca         1 V4M      -0.127300
     63 C32        -19.6670   143.2180    23.9510 ca         1 V4M      -0.105500
     64 C33        -20.6810   145.2350    24.8530 ca         1 V4M      -0.105500
     65 H321       -18.9660   142.3930    24.0390 ha         1 V4M       0.141000
     66 C34        -20.4680   143.3290    22.8030 ca         1 V4M      -0.133500
     67 H331       -20.7660   145.9750    25.6440 ha         1 V4M       0.141000
     68 C35        -21.4810   145.3470    23.7040 ca         1 V4M      -0.133500
     69 C36        -21.3770   144.3930    22.6800 ca         1 V4M      -0.118000
     70 H342       -20.3840   142.5930    22.0100 ha         1 V4M       0.134500
     71 H352       -22.1810   146.1720    23.6090 ha         1 V4M       0.134500
     72 H361       -21.9970   144.4780    21.7920 ha         1 V4M       0.133000
     73 C19        -13.6950   143.2010    26.3450 ca         1 V4M      -0.155000
     74 H191       -12.6100   143.1600    26.3980 ha         1 V4M       0.134000
     75 HC1        -16.2450   139.4560    24.6450 h4         1 V4M      -0.005200
     76 HC2        -19.5460   143.7450    27.0750 h1         1 V4M       0.073700
     77 HC3        -18.4750   145.0220    26.4830 h1         1 V4M       0.073700
@<TRIPOS>BOND
     1     1     2 ar  
     2     1     4 ar  
     3     1    19 1   
     4     2     3 ar  
     5     2    50 1   
     6     3     6 ar  
     7     3    20 1   
     8     4     5 ar  
     9     4    21 1   
    10     5     6 ar  
    11     5    11 1   
    12     6    10 1   
    13     7    10 1   
    14     7    11 1   
    15     7    12 1   
    16     8    15 1   
    17     8    16 1   
    18     8    22 1   
    19     9    11 2   
    20    10    23 1   
    21    10    24 1   
    22    12    13 1   
    23    12    16 1   
    24    12    25 1   
    25    13    14 1   
    26    13    26 1   
    27    13    27 1   
    28    14    15 1   
    29    14    28 1   
    30    14    29 1   
    31    15    18 2   
    32    16    17 2   
    33    20    30 ar  
    34    20    33 ar  
    35    30    31 ar  
    36    30    32 1   
    37    31    37 ar  
    38    31    38 1   
    39    33    34 ar  
    40    33    35 1   
    41    34    36 1   
    42    34    37 ar  
    43    35    40 1   
    44    37    39 1   
    45    40    41 1   
    46    40    42 1   
    47    40    43 1   
    48    43    44 1   
    49    43    45 2   
    50    44    46 1   
    51    44    47 1   
    52    46    48 2   
    53    48    49 1   
    54    48    75 1   
    55    49    51 2   
    56    49    52 1   
    57    51    55 1   
    58    52    53 ar  
    59    52    54 ar  
    60    53    58 1   
    61    53    73 ar  
    62    54    55 1   
    63    54    57 ar  
    64    55    56 1   
    65    56    62 1   
    66    56    76 1   
    67    56    77 1   
    68    57    59 1   
    69    57    60 ar  
    70    60    61 1   
    71    60    73 ar  
    72    62    63 ar  
    73    62    64 ar  
    74    63    65 1   
    75    63    66 ar  
    76    64    67 1   
    77    64    68 ar  
    78    66    69 ar  
    79    66    70 1   
    80    68    69 ar  
    81    68    71 1   
    82    69    72 1   
    83    73    74 1   
@<TRIPOS>SUBSTRUCTURE
     1 V4M         1 TEMP              0 ****  ****    0 ROOT
