@<TRIPOS>MOLECULE
V4M
   77    83     1     0     0
SMALL
bcc


@<TRIPOS>ATOM
      1 C1         -14.7400   129.9170    26.3410 ca       595 V4M      -0.147000
      2 C2         -15.3510   131.1590    26.0500 ca       595 V4M      -0.081000
      3 C3         -16.6270   131.5320    26.5110 cp       595 V4M      -0.039000
      4 C4         -15.4250   129.0920    27.2010 ca       595 V4M      -0.048000
      5 C5         -16.6610   129.4290    27.7830 ca       595 V4M      -0.156600
      6 C6         -17.2660   130.5940    27.3840 ca       595 V4M      -0.063300
      7 N1         -18.6880   129.3010    28.8340 n        595 V4M      -0.470800
      8 N2         -22.3530   128.8740    29.1500 ns       595 V4M      -0.598500
      9 O1         -17.2020   127.5460    29.1390 o        595 V4M      -0.606500
     10 C7         -18.6820   130.6070    28.1080 c3       595 V4M       0.114300
     11 C8         -17.4950   128.6510    28.7540 c        595 V4M       0.723100
     12 C9         -19.9270   128.8160    29.5190 c3       595 V4M       0.059700
     13 C10        -20.1650   129.7080    30.7360 c3       595 V4M      -0.093400
     14 C11        -21.4740   129.3070    31.4560 c3       595 V4M      -0.154400
     15 C12        -22.5970   129.2440    30.4520 c        595 V4M       0.702500
     16 C13        -21.1590   128.6730    28.5730 c        595 V4M       0.674500
     17 O2         -21.0640   128.4010    27.3760 o        595 V4M      -0.605500
     18 O3         -23.7630   129.4870    30.7570 o        595 V4M      -0.605500
     19 H1         -13.8160   129.5220    25.9300 ha       595 V4M       0.143000
     20 C23        -17.3090   132.8600    26.1090 cp       595 V4M      -0.061000
     21 H4         -14.9960   128.1440    27.5120 ha       595 V4M       0.157000
     22 H2         -23.1720   128.8210    28.5570 hn       595 V4M       0.337500
     23 H72        -18.5860   131.4610    28.7900 h1       595 V4M       0.087700
     24 H73        -19.4580   130.6510    27.3350 h1       595 V4M       0.087700
     25 H9         -19.7630   127.8090    29.9220 h1       595 V4M       0.111700
     26 H102       -19.3580   129.5360    31.4590 hc       595 V4M       0.075700
     27 H103       -20.2360   130.7320    30.3470 hc       595 V4M       0.075700
     28 H112       -21.8110   130.0120    32.2260 hc       595 V4M       0.088700
     29 H113       -21.4360   128.2670    31.8030 hc       595 V4M       0.088700
     30 C24        -18.5530   132.8350    25.5120 ca       595 V4M      -0.101000
     31 C27        -19.1730   134.0140    25.1160 ca       595 V4M      -0.133000
     32 H242       -19.2310   131.9880    25.5680 ha       595 V4M       0.148000
     33 C25        -16.5920   134.0650    26.0090 ca       595 V4M       0.092100
     34 C26        -17.2100   135.2070    25.5490 ca       595 V4M      -0.138000
     35 O5         -15.1920   134.1350    26.3600 os       595 V4M      -0.334900
     36 H262       -16.6200   136.1010    25.3710 ha       595 V4M       0.145000
     37 C28        -18.5130   135.2230    25.1180 ca       595 V4M      -0.108000
     38 H272       -20.1640   133.9950    24.6720 ha       595 V4M       0.142000
     39 H281       -19.0720   136.0750    24.7420 ha       595 V4M       0.142000
     40 C29        -14.6520   134.3620    27.6700 c3       595 V4M       0.051400
     41 H291       -13.5660   134.4800    27.5650 h1       595 V4M       0.095200
     42 H292       -14.9210   133.5880    28.3980 h1       595 V4M       0.095200
     43 C30        -15.0740   135.6770    28.2950 c        595 V4M       0.608100
     44 N4         -14.9390   136.8580    27.6020 ns       595 V4M      -0.304900
     45 O6         -15.5690   135.6820    29.3860 o        595 V4M      -0.599100
     46 N5         -15.3150   138.1720    27.9070 n2       595 V4M      -0.474300
     47 H42        -14.4950   136.7590    26.6960 hn       595 V4M       0.352500
     48 C31        -16.5430   138.5110    27.6940 ce       595 V4M       0.356900
     49 C14        -16.9070   139.9340    27.6970 cc       595 V4M       0.296600
     50 HC         -14.8120   131.8630    25.4240 ha       595 V4M       0.147000
     51 N3         -18.2230   140.2730    27.6110 nd       595 V4M      -0.492100
     52 C15        -16.0680   141.0410    27.9470 ca       595 V4M      -0.181900
     53 C17        -14.7190   141.2400    28.1480 ca       595 V4M      -0.055000
     54 C16        -16.8940   142.1220    28.1060 ca       595 V4M      -0.055200
     55 N6         -18.2030   141.6210    27.8600 na       595 V4M       0.102900
     56 C21        -19.4550   142.4580    27.6670 c3       595 V4M       0.107600
     57 C18        -16.4920   143.4180    28.4260 ca       595 V4M      -0.139000
     58 H172       -13.9570   140.4710    28.0600 ha       595 V4M       0.152000
     59 H181       -17.1700   144.2650    28.3750 ha       595 V4M       0.136000
     60 C20        -15.0730   143.5630    28.4760 ca       595 V4M      -0.100000
     61 H201       -14.5940   144.5290    28.6040 ha       595 V4M       0.133000
     62 C22        -19.4530   143.2150    26.3530 ca       595 V4M      -0.127300
     63 C32        -19.1880   142.5030    25.1420 ca       595 V4M      -0.105500
     64 C33        -19.7800   144.5830    26.3160 ca       595 V4M      -0.105500
     65 H321       -19.0860   141.4230    25.0840 ha       595 V4M       0.138000
     66 C34        -19.1580   143.2800    23.9420 ca       595 V4M      -0.133000
     67 H331       -19.9200   145.0760    27.2740 ha       595 V4M       0.138000
     68 C35        -19.8550   145.2450    25.0670 ca       595 V4M      -0.133000
     69 C36        -19.6070   144.5900    23.8770 ca       595 V4M      -0.117000
     70 H342       -18.8750   142.8320    22.9940 ha       595 V4M       0.135500
     71 H352       -20.0720   146.3090    25.0420 ha       595 V4M       0.135500
     72 H361       -19.5990   145.2350    23.0040 ha       595 V4M       0.134000
     73 C19        -14.2460   142.4930    28.3810 ca       595 V4M      -0.162000
     74 H191       -13.1830   142.6470    28.5440 ha       595 V4M       0.133000
     75 HC1        -17.4040   137.8470    27.6030 h4       595 V4M       0.042800
     76 HC2        -20.3500   141.8260    27.7180 h1       595 V4M       0.073700
     77 HC3        -19.4080   143.1250    28.5360 h1       595 V4M       0.073700
@<TRIPOS>BOND
     1     1     2 ar  
     2     1     4 ar  
     3     1    19 1   
     4     2     3 ar  
     5     2    50 1   
     6     3     6 ar  
     7     3    20 1   
     8     4     5 ar  
     9     4    21 1   
    10     5     6 ar  
    11     5    11 1   
    12     6    10 1   
    13     7    10 1   
    14     7    11 1   
    15     7    12 1   
    16     8    15 1   
    17     8    16 1   
    18     8    22 1   
    19     9    11 2   
    20    10    23 1   
    21    10    24 1   
    22    12    13 1   
    23    12    16 1   
    24    12    25 1   
    25    13    14 1   
    26    13    26 1   
    27    13    27 1   
    28    14    15 1   
    29    14    28 1   
    30    14    29 1   
    31    15    18 2   
    32    16    17 2   
    33    20    30 ar  
    34    20    33 ar  
    35    30    31 ar  
    36    30    32 1   
    37    31    37 ar  
    38    31    38 1   
    39    33    34 ar  
    40    33    35 1   
    41    34    36 1   
    42    34    37 ar  
    43    35    40 1   
    44    37    39 1   
    45    40    41 1   
    46    40    42 1   
    47    40    43 1   
    48    43    44 1   
    49    43    45 2   
    50    44    46 1   
    51    44    47 1   
    52    46    48 2   
    53    48    49 1   
    54    48    75 1   
    55    49    51 2   
    56    49    52 1   
    57    51    55 1   
    58    52    53 ar  
    59    52    54 ar  
    60    53    58 1   
    61    53    73 ar  
    62    54    55 1   
    63    54    57 ar  
    64    55    56 1   
    65    56    62 1   
    66    56    76 1   
    67    56    77 1   
    68    57    59 1   
    69    57    60 ar  
    70    60    61 1   
    71    60    73 ar  
    72    62    63 ar  
    73    62    64 ar  
    74    63    65 1   
    75    63    66 ar  
    76    64    67 1   
    77    64    68 ar  
    78    66    69 ar  
    79    66    70 1   
    80    68    69 ar  
    81    68    71 1   
    82    69    72 1   
    83    73    74 1   
@<TRIPOS>SUBSTRUCTURE
     1 V4M         1 TEMP              0 ****  ****    0 ROOT
