#       Name:                J18
#       Creating user name   jamesl
#       Creation time:       Thu Jul  7 08:43:30 2022


#       File generated by GOLD software.
#

@<TRIPOS>MOLECULE
J18|J18|mol2|1|dock4
    77    83     1
SMALL
AMBER


@<TRIPOS>ATOM
      1 C1         -15.4164 130.1793  26.5298 C.ar           1 V4M               -0.0608
      2 C2         -16.2007 131.2535  26.1566 C.ar           1 V4M               -0.0539
      3 C3         -17.4828 131.4019  26.6171 C.ar           1 V4M               -0.0102
      4 C4         -15.9631 129.2411  27.4087 C.ar           1 V4M               -0.0493
      5 C5         -17.2707 129.4119  27.8699 C.ar           1 V4M                0.0427
      6 C6         -18.0044 130.4720  27.4778 C.ar           1 V4M               -0.0101
      7 N1         -19.3395 129.1736  28.9480 N.am           1 V4M               -0.2814
      8 N2         -22.9997 128.9542  29.4197 N.am           1 V4M               -0.2541
      9 O1         -17.6542 127.5618  29.2919 O.2            1 V4M               -0.2717
     10 C7         -19.4226 130.4401  28.1263 C.3            1 V4M                0.0417
     11 C8         -18.0362 128.5612  28.7827 C.2            1 V4M                0.2468
     12 C9         -20.4806 128.7471  29.7325 C.3            1 V4M                0.1037
     13 C10        -20.7152 129.6987  30.9176 C.3            1 V4M               -0.0169
     14 C11        -21.8945 129.1341  31.7425 C.3            1 V4M                0.0270
     15 C12        -23.1286 129.1600  30.8326 C.2            1 V4M                0.2182
     16 C13        -21.7143 128.7036  28.8477 C.2            1 V4M                0.2388
     17 O2         -21.6197 128.4417  27.6965 O.2            1 V4M               -0.2751
     18 O3         -24.1986 129.3623  31.2982 O.2            1 V4M               -0.2773
     19 H1         -14.4103 130.0682  26.1532 H              1 V4M                0.0623
     20 C23        -18.2706 132.6081  26.2052 C.ar           1 V4M                0.0123
     21 H4         -15.3796 128.3907  27.7291 H              1 V4M                0.0631
     22 H2         -23.8178 128.9863  28.8283 H              1 V4M                0.1586
     23 H72        -19.5942 131.3138  28.7550 H              1 V4M                0.0521
     24 H73        -20.1954 130.3556  27.3624 H              1 V4M                0.0521
     25 H9         -20.2883 127.7459  30.1178 H              1 V4M                0.0608
     26 H102       -19.8194 129.7497  31.5365 H              1 V4M                0.0296
     27 H103       -20.9658 130.6932  30.5485 H              1 V4M                0.0296
     28 H112       -22.0656 129.7530  32.6234 H              1 V4M                0.0366
     29 H113       -21.6784 128.1095  32.0453 H              1 V4M                0.0366
     30 C24        -19.5337 132.4517  25.5836 C.ar           1 V4M               -0.0517
     31 C27        -20.3137 133.5633  25.2303 C.ar           1 V4M               -0.0615
     32 H242       -19.9212 131.4552  25.3943 H              1 V4M                0.0630
     33 C25        -17.8139 133.9280  26.4684 C.ar           1 V4M                0.0834
     34 C26        -18.6076 135.0429  26.1257 C.ar           1 V4M               -0.0311
     35 O5         -16.5634 134.0574  27.0486 O.3            1 V4M               -0.3358
     36 H262       -18.2707 136.0535  26.3289 H              1 V4M                0.0651
     37 C28        -19.8521 134.8585  25.5047 C.ar           1 V4M               -0.0596
     38 H272       -21.2803 133.4201  24.7554 H              1 V4M                0.0623
     39 H281       -20.4588 135.7192  25.2373 H              1 V4M                0.0624
     40 C29        -15.7287 135.2335  26.9592 C.3            1 V4M                0.1316
     41 H291       -15.4766 135.4222  25.9089 H              1 V4M                0.0675
     42 H292       -14.7913 135.0692  27.5041 H              1 V4M                0.0675
     43 C30        -16.3998 136.5030  27.5035 C.2            1 V4M                0.2576
     44 N4         -16.5567 137.5035  26.5561 N.am           1 V4M               -0.2052
     45 O6         -16.7028 136.6481  28.6769 O.2            1 V4M               -0.2732
     46 N5         -17.0484 138.7377  26.8678 N.2            1 V4M               -0.1876
     47 H42        -16.2821 137.3042  25.6025 H              1 V4M                0.1787
     48 C31        -16.8511 139.7080  26.0376 C.2            1 V4M                0.0731
     49 C14        -17.0229 141.1135  26.3922 C.ar           1 V4M                0.1104
     50 HC         -15.7932 131.9949  25.4852 H              1 V4M                0.0629
     51 N3         -16.6238 142.1129  25.5990 N.ar           1 V4M               -0.1789
     52 C15        -17.6598 141.6130  27.5842 C.ar           1 V4M                0.0265
     53 C17        -18.2327 140.9790  28.6950 C.ar           1 V4M               -0.0507
     54 C16        -17.6270 142.9717  27.4654 C.ar           1 V4M                0.0606
     55 N6         -17.0002 143.2583  26.2656 N.pl3          1 V4M               -0.2199
     56 C21        -16.7538 144.5887  25.6915 C.3            1 V4M                0.0596
     57 C18        -18.1619 143.8192  28.4443 C.ar           1 V4M               -0.0383
     58 H172       -18.2550 139.8971  28.7811 H              1 V4M                0.0631
     59 H181       -18.1302 144.8988  28.3386 H              1 V4M                0.0644
     60 C20        -18.7442 143.2121  29.5771 C.ar           1 V4M               -0.0603
     61 H201       -19.1692 143.8325  30.3611 H              1 V4M                0.0623
     62 C22        -15.2761 144.9259  25.5619 C.ar           1 V4M               -0.0286
     63 C32        -14.8596 146.2641  25.4364 C.ar           1 V4M               -0.0574
     64 C33        -14.3140 143.8987  25.5620 C.ar           1 V4M               -0.0574
     65 H321       -15.5932 147.0653  25.4292 H              1 V4M                0.0626
     66 C34        -13.4942 146.5727  25.3222 C.ar           1 V4M               -0.0619
     67 H331       -14.6270 142.8622  25.6548 H              1 V4M                0.0626
     68 C35        -12.9485 144.2070  25.4469 C.ar           1 V4M               -0.0619
     69 C36        -12.5380 145.5446  25.3295 C.ar           1 V4M               -0.0623
     70 H342       -13.1784 147.6069  25.2278 H              1 V4M                0.0623
     71 H352       -12.2109 143.4103  25.4495 H              1 V4M                0.0623
     72 H361       -11.4823 145.7834  25.2426 H              1 V4M                0.0623
     73 C19        -18.7801 141.8027  29.7009 C.ar           1 V4M               -0.0615
     74 H191       -19.2335 141.3506  30.5786 H              1 V4M                0.0623
     75 HC1        -16.4473 139.5296  25.0400 H              1 V4M                0.0881
     76 HC2        -17.2177 144.6335  24.6978 H              1 V4M                0.0542
     77 HC3        -17.2553 145.3350  26.3209 H              1 V4M                0.0542
@<TRIPOS>BOND
    1    1    2 ar    
    2    1    4 ar    
    3    2    3 ar    
    4    3    6 ar    
    5    4    5 ar    
    6    5    6 ar    
    7    5   11 1     
    8    6   10 1     
    9    7   10 1     
   10    7   11 am    
   11    7   12 1     
   12    8   15 am    
   13    8   16 am    
   14    9   11 2     
   15   12   13 1     
   16   12   16 1     
   17   13   14 1     
   18   14   15 1     
   19   15   18 2     
   20   16   17 2     
   21   19    1 1     
   22   20    3 1     
   23   21    4 1     
   24   22    8 1     
   25   23   10 1     
   26   24   10 1     
   27   25   12 1     
   28   26   13 1     
   29   27   13 1     
   30   28   14 1     
   31   29   14 1     
   32   30   20 ar    
   33   31   30 ar    
   34   32   30 1     
   35   33   20 ar    
   36   34   33 ar    
   37   35   33 1     
   38   36   34 1     
   39   37   31 ar    
   40   38   31 1     
   41   37   34 ar    
   42   39   37 1     
   43   40   35 1     
   44   41   40 1     
   45   42   40 1     
   46   43   40 1     
   47   44   43 am    
   48   45   43 2     
   49   46   44 1     
   50   47   44 1     
   51   48   46 2     
   52   49   48 1     
   53   50    2 1     
   54   51   49 ar    
   55   52   49 ar    
   56   53   52 ar    
   57   54   52 ar    
   58   55   51 ar    
   59   56   55 1     
   60   57   54 ar    
   61   55   54 ar    
   62   58   53 1     
   63   59   57 1     
   64   60   57 ar    
   65   61   60 1     
   66   62   56 1     
   67   63   62 ar    
   68   64   62 ar    
   69   65   63 1     
   70   66   63 ar    
   71   67   64 1     
   72   68   64 ar    
   73   69   66 ar    
   74   70   66 1     
   75   71   68 1     
   76   69   68 ar    
   77   72   69 1     
   78   73   53 ar    
   79   74   73 1     
   80   73   60 ar    
   81   75   48 1     
   82   76   56 1     
   83   77   56 1     
@<TRIPOS>SUBSTRUCTURE
      1 V4M            1
@<TRIPOS>SET
DONOR_HYDROGENS      STATIC     ATOMS    <user>   **** ""
2 22 47
ATOM$RED        STATIC     ATOMS    COLORGROUP SYSTEM
2 22 47
@<TRIPOS>COMMENT
> <Gold.Version>
5.8.1

> <Gold.Id.Protein>
gspt1+CRBNpiece.pdb|gspt1+CRBNpiece.pdb_protein|mol2

> <Gold.Protein.RotatedTorsions>
[  164  153  152  151 ] final -171.78 input  179.98 | X-H torsion
[ 3256 3246 3247 3248 ] final -128.12 input -117.12 | X-H torsion
[ 2677 2666 2665 2664 ] final  132.72 input -179.99 | X-H torsion
[ 3012 3001 3000 2999 ] final  111.18 input  179.98 | X-H torsion
[ 3273 3268 3267 3264 ] final -127.68 input -167.03 | X-H torsion
[ 3137 3122 3123 3129 ] final   44.31 input   37.32 | X-H torsion
[  145  146  149  150 ] final  -70.43 input   81.59 |library1|rotamer17|chi1 (LYS)
[  146  149  150  151 ] final -175.39 input  -75.93 |library1|rotamer17|chi2 (LYS)
[  149  150  151  152 ] final   65.15 input -174.75 |library1|rotamer17|chi3 (LYS)
[  150  151  152  153 ] final   80.00 input -165.23 |library1|rotamer17|chi4 (LYS)

> <Gold.Protein.ActiveResidues>
 GLY     PRO     VAL     LYS     TYR     SER     ASN     HIS     ALA     PHE    
 TRP    

> <Gold.Protein.RotatedAtoms>
  -24.2093  150.7745   -6.0640 C.3 0  0  0  0  0  0  0  0  0  0  0  0  # atno 150  bound_to 149  158  159  151 
  -24.1487  152.2336   -5.6507 C.3 0  0  0  0  0  0  0  0  0  0  0  0  # atno 151  bound_to 150  160  161  152 
  -25.0672  153.0950   -6.5021 C.3 0  0  0  0  0  0  0  0  0  0  0  0  # atno 152  bound_to 151  162  163  153 
  -26.4833  152.9986   -6.0427 N.4 0  0  0  0  0  0  0  0  0  0  0  0  # atno 153  bound_to 152  164  165  166 
  -22.6140  150.8211   -7.4811 H   0  0  0  0  0  0  0  0  0  0  0  0  # atno 156  bound_to 149 
  -24.2025  151.2225   -8.1554 H   0  0  0  0  0  0  0  0  0  0  0  0  # atno 157  bound_to 149 
  -23.6133  150.1856   -5.3662 H   0  0  0  0  0  0  0  0  0  0  0  0  # atno 158  bound_to 150 
  -25.2447  150.4357   -6.0223 H   0  0  0  0  0  0  0  0  0  0  0  0  # atno 159  bound_to 150 
  -23.1244  152.5905   -5.7629 H   0  0  0  0  0  0  0  0  0  0  0  0  # atno 160  bound_to 151 
  -24.4446  152.3214   -4.6058 H   0  0  0  0  0  0  0  0  0  0  0  0  # atno 161  bound_to 151 
  -25.0074  152.7611   -7.5376 H   0  0  0  0  0  0  0  0  0  0  0  0  # atno 162  bound_to 152 
  -24.7412  154.1337   -6.4413 H   0  0  0  0  0  0  0  0  0  0  0  0  # atno 163  bound_to 152 
  -27.0847  153.4693   -6.7040 H   0  0  0  0  0  0  0  0  0  0  0  0  # atno 164  bound_to 153 
  -26.7503  152.0270   -5.9770 H   0  0  0  0  0  0  0  0  0  0  0  0  # atno 165  bound_to 153 
  -26.5732  153.4345   -5.1357 H   0  0  0  0  0  0  0  0  0  0  0  0  # atno 166  bound_to 153 
  -22.9551  141.0125   26.6640 H   0  0  0  0  0  0  0  0  0  0  0  0  # atno 2677 bound_to 2666
  -23.5453  142.4874   26.2201 H   0  0  0  0  0  0  0  0  0  0  0  0  # atno 2678 bound_to 2666
  -21.9201  142.2076   26.1937 H   0  0  0  0  0  0  0  0  0  0  0  0  # atno 2679 bound_to 2666
  -19.5243  135.4891   22.2907 H   0  0  0  0  0  0  0  0  0  0  0  0  # atno 3012 bound_to 3001
  -20.5577  136.3164   21.3076 H   0  0  0  0  0  0  0  0  0  0  0  0  # atno 3013 bound_to 3001
  -20.0210  137.0068   22.7058 H   0  0  0  0  0  0  0  0  0  0  0  0  # atno 3014 bound_to 3001
  -22.7537  122.2106   27.6829 H   0  0  0  0  0  0  0  0  0  0  0  0  # atno 3137 bound_to 3122
  -23.3573  121.1543   26.5704 H   0  0  0  0  0  0  0  0  0  0  0  0  # atno 3138 bound_to 3122
  -23.7529  122.7530   26.4877 H   0  0  0  0  0  0  0  0  0  0  0  0  # atno 3139 bound_to 3122
  -24.4282  133.4552   24.6277 H   0  0  0  0  0  0  0  0  0  0  0  0  # atno 3256 bound_to 3246
  -28.0354  132.1219   30.7223 H   0  0  0  0  0  0  0  0  0  0  0  0  # atno 3273 bound_to 3268

> <Gold.Score>
     Score     S(PLP)   S(hbond)     S(cho)   S(metal)  DE(clash)   DE(tors)    DE(con) S(protein)     intcor
    107.85    -108.87       1.70       0.00       0.00       0.53       1.92      -0.00       3.68       1.91

> <Gold.PLP.Fitness>
107.8540

> <Gold.PLP.PLP>
-108.8684

> <Gold.PLP.part.hbond>
-2.2506

> <Gold.PLP.part.metal>
0.0000

> <Gold.PLP.part.buried>
-3.3649

> <Gold.PLP.part.nonpolar>
-110.9689

> <Gold.PLP.part.repulsive>
5.4561

> <Gold.PLP.ligand.clash>
0.5317

> <Gold.PLP.ligand.torsion>
1.9168

> <Gold.PLP.Chemscore.Hbond>
1.7040

> <Gold.PLP.Chemscore.CHOScore>
0.0000

> <Gold.PLP.Chemscore.Metal>
0.0000

> <Gold.Chemscore.Hbonds>
donor molecule, donor type, donor heavy atom, donor atom, acceptor molecule, acceptor atom, score
      L1  H     8    22       P1  3249  0.70
      P1  H  3274  3288       L1    18  1.00

> <Gold.PLP.Chemscore.Protein.Energy>
3.6760

> <Gold.PLP.Chemscore.Internal.Correction>
1.9148

> <Gold.PLP.Constraint>
-0.0000

