#       Name:                J18
#       Creating user name   jamesl
#       Creation time:       Thu Jul  7 08:43:35 2022


#       File generated by GOLD software.
#

@<TRIPOS>MOLECULE
J18|J18|mol2|1|dock5
    77    83     1
SMALL
AMBER


@<TRIPOS>ATOM
      1 C1         -15.1718 130.2764  26.4715 C.ar           1 V4M               -0.0608
      2 C2         -15.9437 131.3761  26.1507 C.ar           1 V4M               -0.0539
      3 C3         -17.2303 131.5082  26.6037 C.ar           1 V4M               -0.0102
      4 C4         -15.7359 129.2942  27.2893 C.ar           1 V4M               -0.0493
      5 C5         -17.0478 129.4488  27.7439 C.ar           1 V4M                0.0427
      6 C6         -17.7691 130.5351  27.4040 C.ar           1 V4M               -0.0101
      7 N1         -19.1313 129.1660  28.7822 N.am           1 V4M               -0.2814
      8 N2         -22.7982 128.9647  29.2076 N.am           1 V4M               -0.2541
      9 O1         -17.4620 127.5241  29.0539 O.2            1 V4M               -0.2717
     10 C7         -19.1952 130.4777  28.0329 C.3            1 V4M                0.0417
     11 C8         -17.8305 128.5537  28.5979 C.2            1 V4M                0.2468
     12 C9         -20.2849 128.7048  29.5277 C.3            1 V4M                0.1037
     13 C10        -20.5187 129.5807  30.7699 C.3            1 V4M               -0.0169
     14 C11        -21.7126 128.9795  31.5465 C.3            1 V4M                0.0270
     15 C12        -22.9378 129.0804  30.6296 C.2            1 V4M                0.2182
     16 C13        -21.5108 128.7348  28.6315 C.2            1 V4M                0.2388
     17 O2         -21.4087 128.5466  27.4665 O.2            1 V4M               -0.2751
     18 O3         -24.0094 129.2662  31.0982 O.2            1 V4M               -0.2773
     19 H1         -14.1620 130.1789  26.1012 H              1 V4M                0.0623
     20 C23        -18.0043 132.7420  26.2517 C.ar           1 V4M                0.0123
     21 H4         -15.1624 128.4224  27.5677 H              1 V4M                0.0631
     22 H2         -23.6103 129.0457  28.6125 H              1 V4M                0.1586
     23 H72        -19.3682 131.3157  28.7081 H              1 V4M                0.0521
     24 H73        -19.9593 130.4427  27.2563 H              1 V4M                0.0521
     25 H9         -20.1088 127.6782  29.8490 H              1 V4M                0.0608
     26 H102       -19.6281 129.5797  31.3984 H              1 V4M                0.0296
     27 H103       -20.7533 130.6002  30.4639 H              1 V4M                0.0296
     28 H112       -21.8842 129.5422  32.4641 H              1 V4M                0.0366
     29 H113       -21.5122 127.9347  31.7841 H              1 V4M                0.0366
     30 C24        -19.3042 132.6303  25.7003 C.ar           1 V4M               -0.0517
     31 C27        -20.0699 133.7685  25.4051 C.ar           1 V4M               -0.0615
     32 H242       -19.7306 131.6480  25.5207 H              1 V4M                0.0630
     33 C25        -17.4953 134.0445  26.5052 C.ar           1 V4M                0.0834
     34 C26        -18.2740 135.1863  26.2214 C.ar           1 V4M               -0.0311
     35 O5         -16.2110 134.1303  27.0156 O.3            1 V4M               -0.3358
     36 H262       -17.8969 136.1840  26.4178 H              1 V4M                0.0651
     37 C28        -19.5561 135.0461  25.6691 C.ar           1 V4M               -0.0596
     38 H272       -21.0653 133.6595  24.9836 H              1 V4M                0.0623
     39 H281       -20.1514 135.9273  25.4470 H              1 V4M                0.0624
     40 C29        -15.5429 135.3616  27.3696 C.3            1 V4M                0.1316
     41 H291       -15.4864 136.0115  26.4882 H              1 V4M                0.0675
     42 H292       -14.5176 135.1503  27.6960 H              1 V4M                0.0675
     43 C30        -16.2598 136.1511  28.4745 C.2            1 V4M                0.2576
     44 N4         -15.6921 135.9980  29.7305 N.am           1 V4M               -0.2052
     45 O6         -17.2774 136.7970  28.2815 O.2            1 V4M               -0.2732
     46 N5         -16.2393 136.5461  30.8540 N.2            1 V4M               -0.1876
     47 H42        -14.8464 135.4472  29.8073 H              1 V4M                0.1787
     48 C31        -15.6075 136.4169  31.9738 C.2            1 V4M                0.0731
     49 C14        -16.2259 136.6536  33.2748 C.ar           1 V4M                0.1104
     50 HC         -15.5228 132.1512  25.5274 H              1 V4M                0.0629
     51 N3         -16.9661 135.7333  33.9011 N.ar           1 V4M               -0.1789
     52 C15        -16.1015 137.8522  34.0645 C.ar           1 V4M                0.0265
     53 C17        -15.4430 139.0705  33.8494 C.ar           1 V4M               -0.0507
     54 C16        -16.8054 137.6035  35.2064 C.ar           1 V4M                0.0606
     55 N6         -17.3206 136.3243  35.0940 N.pl3          1 V4M               -0.2199
     56 C21        -18.1296 135.6055  36.0886 C.3            1 V4M                0.0596
     57 C18        -16.9160 138.5480  36.2351 C.ar           1 V4M               -0.0383
     58 H172       -14.8846 139.2598  32.9379 H              1 V4M                0.0631
     59 H181       -17.4785 138.3387  37.1392 H              1 V4M                0.0644
     60 C20        -16.2662 139.7865  36.0485 C.ar           1 V4M               -0.0603
     61 H201       -16.3279 140.5480  36.8207 H              1 V4M                0.0623
     62 C22        -17.6210 134.2016  36.3796 C.ar           1 V4M               -0.0286
     63 C32        -18.2996 133.3739  37.2930 C.ar           1 V4M               -0.0574
     64 C33        -16.4633 133.7223  35.7390 C.ar           1 V4M               -0.0574
     65 H321       -19.1911 133.7346  37.7981 H              1 V4M                0.0626
     66 C34        -17.8307 132.0762  37.5557 C.ar           1 V4M               -0.0619
     67 H331       -15.9309 134.3561  35.0349 H              1 V4M                0.0626
     68 C35        -15.9936 132.4249  36.0022 C.ar           1 V4M               -0.0619
     69 C36        -16.6789 131.6005  36.9089 C.ar           1 V4M               -0.0623
     70 H342       -18.3593 131.4412  38.2596 H              1 V4M                0.0623
     71 H352       -15.1009 132.0601  35.5034 H              1 V4M                0.0623
     72 H361       -16.3173 130.5967  37.1110 H              1 V4M                0.0623
     73 C19        -15.5345 140.0452  34.8650 C.ar           1 V4M               -0.0615
     74 H191       -15.0385 141.0033  34.7371 H              1 V4M                0.0623
     75 HC1        -14.5897 136.0258  32.0107 H              1 V4M                0.0881
     76 HC2        -18.1333 136.1834  37.0217 H              1 V4M                0.0542
     77 HC3        -19.1646 135.5623  35.7262 H              1 V4M                0.0542
@<TRIPOS>BOND
    1    1    2 ar    
    2    1    4 ar    
    3    2    3 ar    
    4    3    6 ar    
    5    4    5 ar    
    6    5    6 ar    
    7    5   11 1     
    8    6   10 1     
    9    7   10 1     
   10    7   11 am    
   11    7   12 1     
   12    8   15 am    
   13    8   16 am    
   14    9   11 2     
   15   12   13 1     
   16   12   16 1     
   17   13   14 1     
   18   14   15 1     
   19   15   18 2     
   20   16   17 2     
   21   19    1 1     
   22   20    3 1     
   23   21    4 1     
   24   22    8 1     
   25   23   10 1     
   26   24   10 1     
   27   25   12 1     
   28   26   13 1     
   29   27   13 1     
   30   28   14 1     
   31   29   14 1     
   32   30   20 ar    
   33   31   30 ar    
   34   32   30 1     
   35   33   20 ar    
   36   34   33 ar    
   37   35   33 1     
   38   36   34 1     
   39   37   31 ar    
   40   38   31 1     
   41   37   34 ar    
   42   39   37 1     
   43   40   35 1     
   44   41   40 1     
   45   42   40 1     
   46   43   40 1     
   47   44   43 am    
   48   45   43 2     
   49   46   44 1     
   50   47   44 1     
   51   48   46 2     
   52   49   48 1     
   53   50    2 1     
   54   51   49 ar    
   55   52   49 ar    
   56   53   52 ar    
   57   54   52 ar    
   58   55   51 ar    
   59   56   55 1     
   60   57   54 ar    
   61   55   54 ar    
   62   58   53 1     
   63   59   57 1     
   64   60   57 ar    
   65   61   60 1     
   66   62   56 1     
   67   63   62 ar    
   68   64   62 ar    
   69   65   63 1     
   70   66   63 ar    
   71   67   64 1     
   72   68   64 ar    
   73   69   66 ar    
   74   70   66 1     
   75   71   68 1     
   76   69   68 ar    
   77   72   69 1     
   78   73   53 ar    
   79   74   73 1     
   80   73   60 ar    
   81   75   48 1     
   82   76   56 1     
   83   77   56 1     
@<TRIPOS>SUBSTRUCTURE
      1 V4M            1
@<TRIPOS>SET
DONOR_HYDROGENS      STATIC     ATOMS    <user>   **** ""
2 22 47
ATOM$RED        STATIC     ATOMS    COLORGROUP SYSTEM
2 22 47
@<TRIPOS>COMMENT
> <Gold.Version>
5.8.1

> <Gold.Id.Protein>
gspt1+CRBNpiece.pdb|gspt1+CRBNpiece.pdb_protein|mol2

> <Gold.Protein.RotatedTorsions>
[  164  153  152  151 ] final   56.49 input  179.98 | X-H torsion
[ 3256 3246 3247 3248 ] final  -72.17 input -117.12 | X-H torsion
[ 2677 2666 2665 2664 ] final   62.55 input -179.99 | X-H torsion
[ 3012 3001 3000 2999 ] final  -58.41 input  179.98 | X-H torsion
[ 3273 3268 3267 3264 ] final  -82.31 input -167.03 | X-H torsion
[ 3137 3122 3123 3129 ] final -133.15 input   37.32 | X-H torsion
[  145  146  149  150 ] final  -68.00 input   81.59 |library1|rotamer18|chi1 (LYS)
[  146  149  150  151 ] final -168.68 input  -75.93 |library1|rotamer18|chi2 (LYS)
[  149  150  151  152 ] final   53.39 input -174.75 |library1|rotamer18|chi3 (LYS)
[  150  151  152  153 ] final  178.81 input -165.23 |library1|rotamer18|chi4 (LYS)

> <Gold.Protein.ActiveResidues>
 GLY     PRO     VAL     LYS     TYR     SER     ASN     HIS     ALA     PHE    
 TRP    

> <Gold.Protein.RotatedAtoms>
  -24.1555  150.7617   -6.0428 C.3 0  0  0  0  0  0  0  0  0  0  0  0  # atno 150  bound_to 149  158  159  151 
  -24.2537  152.2322   -5.6801 C.3 0  0  0  0  0  0  0  0  0  0  0  0  # atno 151  bound_to 150  160  161  152 
  -25.0973  153.0011   -6.6840 C.3 0  0  0  0  0  0  0  0  0  0  0  0  # atno 152  bound_to 151  162  163  153 
  -25.2141  154.4398   -6.3072 N.4 0  0  0  0  0  0  0  0  0  0  0  0  # atno 153  bound_to 152  164  165  166 
  -22.6189  150.8358   -7.5222 H   0  0  0  0  0  0  0  0  0  0  0  0  # atno 156  bound_to 149 
  -24.2385  151.2175   -8.1309 H   0  0  0  0  0  0  0  0  0  0  0  0  # atno 157  bound_to 149 
  -23.4548  150.2770   -5.3624 H   0  0  0  0  0  0  0  0  0  0  0  0  # atno 158  bound_to 150 
  -25.1374  150.3013   -5.9305 H   0  0  0  0  0  0  0  0  0  0  0  0  # atno 159  bound_to 150 
  -23.2505  152.6591   -5.6604 H   0  0  0  0  0  0  0  0  0  0  0  0  # atno 160  bound_to 151 
  -24.7012  152.3271   -4.6913 H   0  0  0  0  0  0  0  0  0  0  0  0  # atno 161  bound_to 151 
  -26.0941  152.5623   -6.7194 H   0  0  0  0  0  0  0  0  0  0  0  0  # atno 162  bound_to 152 
  -24.6375  152.9255   -7.6698 H   0  0  0  0  0  0  0  0  0  0  0  0  # atno 163  bound_to 152 
  -24.2910  154.8411   -6.2200 H   0  0  0  0  0  0  0  0  0  0  0  0  # atno 164  bound_to 153 
  -25.7300  154.9338   -7.0209 H   0  0  0  0  0  0  0  0  0  0  0  0  # atno 165  bound_to 153 
  -25.7005  154.5182   -5.4251 H   0  0  0  0  0  0  0  0  0  0  0  0  # atno 166  bound_to 153 
  -23.7395  141.7526   26.4774 H   0  0  0  0  0  0  0  0  0  0  0  0  # atno 2677 bound_to 2666
  -22.4948  142.7499   26.0569 H   0  0  0  0  0  0  0  0  0  0  0  0  # atno 2678 bound_to 2666
  -22.1851  141.2048   26.5435 H   0  0  0  0  0  0  0  0  0  0  0  0  # atno 2679 bound_to 2666
  -20.5926  136.9673   21.7697 H   0  0  0  0  0  0  0  0  0  0  0  0  # atno 3012 bound_to 3001
  -19.5715  136.3840   22.9255 H   0  0  0  0  0  0  0  0  0  0  0  0  # atno 3013 bound_to 3001
  -19.9388  135.4609   21.6092 H   0  0  0  0  0  0  0  0  0  0  0  0  # atno 3014 bound_to 3001
  -23.8118  121.8274   26.1479 H   0  0  0  0  0  0  0  0  0  0  0  0  # atno 3137 bound_to 3122
  -23.2431  122.9375   27.2259 H   0  0  0  0  0  0  0  0  0  0  0  0  # atno 3138 bound_to 3122
  -22.8083  121.3534   27.3683 H   0  0  0  0  0  0  0  0  0  0  0  0  # atno 3139 bound_to 3122
  -24.8058  133.4747   25.3685 H   0  0  0  0  0  0  0  0  0  0  0  0  # atno 3256 bound_to 3246
  -27.9224  131.4524   30.5609 H   0  0  0  0  0  0  0  0  0  0  0  0  # atno 3273 bound_to 3268

> <Gold.Score>
     Score     S(PLP)   S(hbond)     S(cho)   S(metal)  DE(clash)   DE(tors)    DE(con) S(protein)     intcor
    110.26    -109.21       2.41       0.00       0.00       0.00       2.20      -0.00       3.44       1.66

> <Gold.PLP.Fitness>
110.2576

> <Gold.PLP.PLP>
-109.2114

> <Gold.PLP.part.hbond>
-3.5742

> <Gold.PLP.part.metal>
0.0000

> <Gold.PLP.part.buried>
-7.4501

> <Gold.PLP.part.nonpolar>
-106.3723

> <Gold.PLP.part.repulsive>
5.7028

> <Gold.PLP.ligand.clash>
0.0000

> <Gold.PLP.ligand.torsion>
2.1970

> <Gold.PLP.Chemscore.Hbond>
2.4075

> <Gold.PLP.Chemscore.CHOScore>
0.0000

> <Gold.PLP.Chemscore.Metal>
0.0000

> <Gold.Chemscore.Hbonds>
donor molecule, donor type, donor heavy atom, donor atom, acceptor molecule, acceptor atom, score
      L1  H     8    22       P1  3249  0.88
      P1  H  3274  3288       L1    18  0.98
      P1  H  3147  3152       L1     9  0.55

> <Gold.PLP.Chemscore.Protein.Energy>
3.4402

> <Gold.PLP.Chemscore.Internal.Correction>
1.6579

> <Gold.PLP.Constraint>
-0.0000

