#       Name:                J18
#       Creating user name   jamesl
#       Creation time:       Thu Jul  7 08:43:59 2022


#       File generated by GOLD software.
#

@<TRIPOS>MOLECULE
J18|J18|mol2|1|dock10
    77    83     1
SMALL
AMBER


@<TRIPOS>ATOM
      1 C1         -15.3835 130.2723  26.5274 C.ar           1 V4M               -0.0608
      2 C2         -16.1887 131.3282  26.1466 C.ar           1 V4M               -0.0539
      3 C3         -17.4765 131.4498  26.5991 C.ar           1 V4M               -0.0102
      4 C4         -15.9148 129.3248  27.4058 C.ar           1 V4M               -0.0493
      5 C5         -17.2285 129.4684  27.8588 C.ar           1 V4M                0.0427
      6 C6         -17.9828 130.5111  27.4594 C.ar           1 V4M               -0.0101
      7 N1         -19.2980 129.1879  28.9254 N.am           1 V4M               -0.2814
      8 N2         -22.9555 128.9235  29.3954 N.am           1 V4M               -0.2541
      9 O1         -17.5801 127.6142  29.2838 O.2            1 V4M               -0.2717
     10 C7         -19.4038 130.4501  28.0997 C.3            1 V4M                0.0417
     11 C8         -17.9807 128.6036  28.7696 C.2            1 V4M                0.2468
     12 C9         -20.4341 128.7389  29.7045 C.3            1 V4M                0.1037
     13 C10        -20.6783 129.6718  30.9025 C.3            1 V4M               -0.0169
     14 C11        -21.8512 129.0837  31.7200 C.3            1 V4M                0.0270
     15 C12        -23.0859 129.1088  30.8109 C.2            1 V4M                0.2182
     16 C13        -21.6677 128.6943  28.8196 C.2            1 V4M                0.2388
     17 O2         -21.5709 128.4490  27.6649 O.2            1 V4M               -0.2751
     18 O3         -24.1577 129.2935  31.2795 O.2            1 V4M               -0.2773
     19 H1         -14.3730 130.1821  26.1570 H              1 V4M                0.0623
     20 C23        -18.2879 132.6375  26.1792 C.ar           1 V4M                0.0123
     21 H4         -15.3148 128.4882  27.7320 H              1 V4M                0.0631
     22 H2         -23.7741 128.9549  28.8046 H              1 V4M                0.1586
     23 H72        -19.5980 131.3216  28.7249 H              1 V4M                0.0521
     24 H73        -20.1700 130.3467  27.3315 H              1 V4M                0.0521
     25 H9         -20.2311 127.7346  30.0762 H              1 V4M                0.0608
     26 H102       -19.7828 129.7239  31.5217 H              1 V4M                0.0296
     27 H103       -20.9395 130.6685  30.5469 H              1 V4M                0.0296
     28 H112       -22.0284 129.6887  32.6092 H              1 V4M                0.0366
     29 H113       -21.6241 128.0574  32.0089 H              1 V4M                0.0366
     30 C24        -19.5293 132.4519  25.5229 C.ar           1 V4M               -0.0517
     31 C27        -20.3317 133.5445  25.1607 C.ar           1 V4M               -0.0615
     32 H242       -19.8827 131.4468  25.3130 H              1 V4M                0.0630
     33 C25        -17.8767 133.9669  26.4682 C.ar           1 V4M                0.0834
     34 C26        -18.6931 135.0624  26.1163 C.ar           1 V4M               -0.0311
     35 O5         -16.6460 134.1257  27.0824 O.3            1 V4M               -0.3358
     36 H262       -18.3910 136.0799  26.3388 H              1 V4M                0.0651
     37 C28        -19.9151 134.8492  25.4607 C.ar           1 V4M               -0.0596
     38 H272       -21.2811 133.3789  24.6590 H              1 V4M                0.0623
     39 H281       -20.5393 135.6951  25.1865 H              1 V4M                0.0624
     40 C29        -15.8122 135.3005  26.9710 C.3            1 V4M                0.1316
     41 H291       -15.4498 135.3934  25.9403 H              1 V4M                0.0675
     42 H292       -14.9379 135.2021  27.6257 H              1 V4M                0.0675
     43 C30        -16.5439 136.6053  27.3177 C.2            1 V4M                0.2576
     44 N4         -16.4163 137.5924  26.3520 N.am           1 V4M               -0.2052
     45 O6         -17.1246 136.7849  28.3762 O.2            1 V4M               -0.2732
     46 N5         -16.9178 138.8505  26.5189 N.2            1 V4M               -0.1876
     47 H42        -15.9205 137.3640  25.4997 H              1 V4M                0.1787
     48 C31        -16.6871 139.7330  25.6037 C.2            1 V4M                0.0731
     49 C14        -16.8704 141.1666  25.8084 C.ar           1 V4M                0.1104
     50 HC         -15.7935 132.0764  25.4755 H              1 V4M                0.0629
     51 N3         -18.0759 141.7435  25.8424 N.ar           1 V4M               -0.1789
     52 C15        -15.8224 142.1289  26.0360 C.ar           1 V4M                0.0265
     53 C17        -14.4264 142.0208  26.0948 C.ar           1 V4M               -0.0507
     54 C16        -16.4626 143.3205  26.2136 C.ar           1 V4M                0.0606
     55 N6         -17.8188 143.0733  26.0941 N.pl3          1 V4M               -0.2199
     56 C21        -18.9113 144.0468  26.2321 C.3            1 V4M                0.0596
     57 C18        -15.7676 144.5106  26.4648 C.ar           1 V4M               -0.0383
     58 H172       -13.9252 141.0684  25.9528 H              1 V4M                0.0631
     59 H181       -16.2878 145.4526  26.6047 H              1 V4M                0.0644
     60 C20        -14.3599 144.4363  26.5278 C.ar           1 V4M               -0.0603
     61 H201       -13.7818 145.3359  26.7187 H              1 V4M                0.0623
     62 C22        -19.7732 144.1676  24.9843 C.ar           1 V4M               -0.0286
     63 C32        -19.6673 143.2180  23.9514 C.ar           1 V4M               -0.0574
     64 C33        -20.6808 145.2351  24.8528 C.ar           1 V4M               -0.0574
     65 H321       -18.9663 142.3928  24.0387 H              1 V4M                0.0626
     66 C34        -20.4682 143.3292  22.8029 C.ar           1 V4M               -0.0619
     67 H331       -20.7665 145.9750  25.6441 H              1 V4M                0.0626
     68 C35        -21.4812 145.3471  23.7040 C.ar           1 V4M               -0.0619
     69 C36        -21.3768 144.3925  22.6796 C.ar           1 V4M               -0.0623
     70 H342       -20.3839 142.5926  22.0101 H              1 V4M                0.0623
     71 H352       -22.1809 146.1718  23.6092 H              1 V4M                0.0623
     72 H361       -21.9969 144.4776  21.7923 H              1 V4M                0.0623
     73 C19        -13.6946 143.2005  26.3451 C.ar           1 V4M               -0.0615
     74 H191       -12.6103 143.1597  26.3982 H              1 V4M                0.0623
     75 HC1        -16.2453 139.4562  24.6454 H              1 V4M                0.0881
     76 HC2        -19.5459 143.7449  27.0752 H              1 V4M                0.0542
     77 HC3        -18.4754 145.0222  26.4831 H              1 V4M                0.0542
@<TRIPOS>BOND
    1    1    2 ar    
    2    1    4 ar    
    3    2    3 ar    
    4    3    6 ar    
    5    4    5 ar    
    6    5    6 ar    
    7    5   11 1     
    8    6   10 1     
    9    7   10 1     
   10    7   11 am    
   11    7   12 1     
   12    8   15 am    
   13    8   16 am    
   14    9   11 2     
   15   12   13 1     
   16   12   16 1     
   17   13   14 1     
   18   14   15 1     
   19   15   18 2     
   20   16   17 2     
   21   19    1 1     
   22   20    3 1     
   23   21    4 1     
   24   22    8 1     
   25   23   10 1     
   26   24   10 1     
   27   25   12 1     
   28   26   13 1     
   29   27   13 1     
   30   28   14 1     
   31   29   14 1     
   32   30   20 ar    
   33   31   30 ar    
   34   32   30 1     
   35   33   20 ar    
   36   34   33 ar    
   37   35   33 1     
   38   36   34 1     
   39   37   31 ar    
   40   38   31 1     
   41   37   34 ar    
   42   39   37 1     
   43   40   35 1     
   44   41   40 1     
   45   42   40 1     
   46   43   40 1     
   47   44   43 am    
   48   45   43 2     
   49   46   44 1     
   50   47   44 1     
   51   48   46 2     
   52   49   48 1     
   53   50    2 1     
   54   51   49 ar    
   55   52   49 ar    
   56   53   52 ar    
   57   54   52 ar    
   58   55   51 ar    
   59   56   55 1     
   60   57   54 ar    
   61   55   54 ar    
   62   58   53 1     
   63   59   57 1     
   64   60   57 ar    
   65   61   60 1     
   66   62   56 1     
   67   63   62 ar    
   68   64   62 ar    
   69   65   63 1     
   70   66   63 ar    
   71   67   64 1     
   72   68   64 ar    
   73   69   66 ar    
   74   70   66 1     
   75   71   68 1     
   76   69   68 ar    
   77   72   69 1     
   78   73   53 ar    
   79   74   73 1     
   80   73   60 ar    
   81   75   48 1     
   82   76   56 1     
   83   77   56 1     
@<TRIPOS>SUBSTRUCTURE
      1 V4M            1
@<TRIPOS>SET
DONOR_HYDROGENS      STATIC     ATOMS    <user>   **** ""
2 22 47
ATOM$RED        STATIC     ATOMS    COLORGROUP SYSTEM
2 22 47
@<TRIPOS>COMMENT
> <Gold.Version>
5.8.1

> <Gold.Id.Protein>
gspt1+CRBNpiece.pdb|gspt1+CRBNpiece.pdb_protein|mol2

> <Gold.Protein.RotatedTorsions>
[  164  153  152  151 ] final   18.44 input  179.98 | X-H torsion
[ 3256 3246 3247 3248 ] final  -23.81 input -117.12 | X-H torsion
[ 2677 2666 2665 2664 ] final  169.45 input -179.99 | X-H torsion
[ 3012 3001 3000 2999 ] final  152.14 input  179.98 | X-H torsion
[ 3273 3268 3267 3264 ] final  158.97 input -167.03 | X-H torsion
[ 3137 3122 3123 3129 ] final  -48.50 input   37.32 | X-H torsion
[  145  146  149  150 ] final  -68.49 input   81.59 |library1|rotamer17|chi1 (LYS)
[  146  149  150  151 ] final -174.90 input  -75.93 |library1|rotamer17|chi2 (LYS)
[  149  150  151  152 ] final   62.39 input -174.75 |library1|rotamer17|chi3 (LYS)
[  150  151  152  153 ] final   80.00 input -165.23 |library1|rotamer17|chi4 (LYS)

> <Gold.Protein.ActiveResidues>
 GLY     PRO     VAL     LYS     TYR     SER     ASN     HIS     ALA     PHE    
 TRP    

> <Gold.Protein.RotatedAtoms>
  -24.1665  150.7643   -6.0469 C.3 0  0  0  0  0  0  0  0  0  0  0  0  # atno 150  bound_to 149  158  159  151 
  -24.1201  152.2242   -5.6349 C.3 0  0  0  0  0  0  0  0  0  0  0  0  # atno 151  bound_to 150  160  161  152 
  -25.0323  153.0791   -6.4997 C.3 0  0  0  0  0  0  0  0  0  0  0  0  # atno 152  bound_to 151  162  163  153 
  -26.4537  152.9749   -6.0590 N.4 0  0  0  0  0  0  0  0  0  0  0  0  # atno 153  bound_to 152  164  165  166 
  -22.6177  150.8328   -7.5138 H   0  0  0  0  0  0  0  0  0  0  0  0  # atno 156  bound_to 149 
  -24.2312  151.2186   -8.1360 H   0  0  0  0  0  0  0  0  0  0  0  0  # atno 157  bound_to 149 
  -23.5368  150.1868   -5.3695 H   0  0  0  0  0  0  0  0  0  0  0  0  # atno 158  bound_to 150 
  -25.1934  150.4059   -5.9713 H   0  0  0  0  0  0  0  0  0  0  0  0  # atno 159  bound_to 150 
  -23.0966  152.5870   -5.7340 H   0  0  0  0  0  0  0  0  0  0  0  0  # atno 160  bound_to 151 
  -24.4303  152.3117   -4.5941 H   0  0  0  0  0  0  0  0  0  0  0  0  # atno 161  bound_to 151 
  -24.9568  152.7441   -7.5338 H   0  0  0  0  0  0  0  0  0  0  0  0  # atno 162  bound_to 152 
  -24.7133  154.1198   -6.4360 H   0  0  0  0  0  0  0  0  0  0  0  0  # atno 163  bound_to 152 
  -26.4884  152.6137   -5.1161 H   0  0  0  0  0  0  0  0  0  0  0  0  # atno 164  bound_to 153 
  -26.8821  153.8889   -6.0855 H   0  0  0  0  0  0  0  0  0  0  0  0  # atno 165  bound_to 153 
  -26.9529  152.3511   -6.6775 H   0  0  0  0  0  0  0  0  0  0  0  0  # atno 166  bound_to 153 
  -22.3646  141.0925   26.5945 H   0  0  0  0  0  0  0  0  0  0  0  0  # atno 2677 bound_to 2666
  -23.7562  141.9585   26.4098 H   0  0  0  0  0  0  0  0  0  0  0  0  # atno 2678 bound_to 2666
  -22.3001  142.6562   26.0736 H   0  0  0  0  0  0  0  0  0  0  0  0  # atno 2679 bound_to 2666
  -19.4460  135.9412   22.7738 H   0  0  0  0  0  0  0  0  0  0  0  0  # atno 3012 bound_to 3001
  -20.2415  135.7314   21.3448 H   0  0  0  0  0  0  0  0  0  0  0  0  # atno 3013 bound_to 3001
  -20.4156  137.1395   22.1853 H   0  0  0  0  0  0  0  0  0  0  0  0  # atno 3014 bound_to 3001
  -23.0870  121.1089   26.9236 H   0  0  0  0  0  0  0  0  0  0  0  0  # atno 3137 bound_to 3122
  -23.8599  122.3955   26.2415 H   0  0  0  0  0  0  0  0  0  0  0  0  # atno 3138 bound_to 3122
  -22.9169  122.6143   27.5764 H   0  0  0  0  0  0  0  0  0  0  0  0  # atno 3139 bound_to 3122
  -24.5000  133.4314   26.0257 H   0  0  0  0  0  0  0  0  0  0  0  0  # atno 3256 bound_to 3246
  -27.2585  132.7165   31.1818 H   0  0  0  0  0  0  0  0  0  0  0  0  # atno 3273 bound_to 3268

> <Gold.Score>
     Score     S(PLP)   S(hbond)     S(cho)   S(metal)  DE(clash)   DE(tors)    DE(con) S(protein)     intcor
    111.75    -116.94       1.71       0.00       0.00       3.09       2.56      -0.00       3.71       1.59

> <Gold.PLP.Fitness>
111.7482

> <Gold.PLP.PLP>
-116.9383

> <Gold.PLP.part.hbond>
-2.1323

> <Gold.PLP.part.metal>
0.0000

> <Gold.PLP.part.buried>
-3.8969

> <Gold.PLP.part.nonpolar>
-119.5081

> <Gold.PLP.part.repulsive>
6.2147

> <Gold.PLP.ligand.clash>
3.0947

> <Gold.PLP.ligand.torsion>
2.5560

> <Gold.PLP.Chemscore.Hbond>
1.7113

> <Gold.PLP.Chemscore.CHOScore>
0.0000

> <Gold.PLP.Chemscore.Metal>
0.0000

> <Gold.Chemscore.Hbonds>
donor molecule, donor type, donor heavy atom, donor atom, acceptor molecule, acceptor atom, score
      L1  H     8    22       P1  3249  0.72
      P1  H  3274  3288       L1    18  0.99

> <Gold.PLP.Chemscore.Protein.Energy>
3.7055

> <Gold.PLP.Chemscore.Internal.Correction>
1.5884

> <Gold.PLP.Constraint>
-0.0000

