#       Name:                J18
#       Creating user name   jamesl
#       Creation time:       Thu Jul  7 08:43:54 2022


#       File generated by GOLD software.
#

@<TRIPOS>MOLECULE
J18|J18|mol2|1|dock9
    77    83     1
SMALL
AMBER


@<TRIPOS>ATOM
      1 C1         -14.9462 130.0787  26.4005 C.ar           1 V4M               -0.0608
      2 C2         -15.7163 131.1445  25.9772 C.ar           1 V4M               -0.0539
      3 C3         -17.0160 131.2986  26.3833 C.ar           1 V4M               -0.0102
      4 C4         -15.5265 129.1552  27.2736 C.ar           1 V4M               -0.0493
      5 C5         -16.8517 129.3317  27.6790 C.ar           1 V4M                0.0427
      6 C6         -17.5705 130.3832  27.2390 C.ar           1 V4M               -0.0101
      7 N1         -18.9617 129.1086  28.6777 N.am           1 V4M               -0.2814
      8 N2         -22.6362 129.0008  29.0700 N.am           1 V4M               -0.2541
      9 O1         -17.2895 127.5065  29.1175 O.2            1 V4M               -0.2717
     10 C7         -19.0134 130.3601  27.8308 C.3            1 V4M                0.0417
     11 C8         -17.6520 128.4959  28.5756 C.2            1 V4M                0.2468
     12 C9         -20.1327 128.6941  29.4234 C.3            1 V4M                0.1037
     13 C10        -20.3589 129.6092  30.6386 C.3            1 V4M               -0.0169
     14 C11        -21.5737 129.0566  31.4188 C.3            1 V4M                0.0270
     15 C12        -22.7871 129.1591  30.4867 C.2            1 V4M                0.2182
     16 C13        -21.3487 128.7264  28.5140 C.2            1 V4M                0.2388
     17 O2         -21.2394 128.5036  27.3558 O.2            1 V4M               -0.2751
     18 O3         -23.8589 129.3817  30.9388 O.2            1 V4M               -0.2773
     19 H1         -13.9258 129.9627  26.0665 H              1 V4M                0.0623
     20 C23        -17.7881 132.4957  25.9187 C.ar           1 V4M                0.0123
     21 H4         -14.9552 128.3118  27.6322 H              1 V4M                0.0631
     22 H2         -23.4404 129.0833  28.4643 H              1 V4M                0.1586
     23 H72        -19.2110 131.2446  28.4364 H              1 V4M                0.0521
     24 H73        -19.7549 130.2605  27.0382 H              1 V4M                0.0521
     25 H9         -19.9829 127.6732  29.7748 H              1 V4M                0.0608
     26 H102       -19.4748 129.6059  31.2761 H              1 V4M                0.0296
     27 H103       -20.5675 130.6248  30.3020 H              1 V4M                0.0296
     28 H112       -21.7416 129.6483  32.3187 H              1 V4M                0.0366
     29 H113       -21.3992 128.0146  31.6872 H              1 V4M                0.0366
     30 C24        -18.6695 133.1594  26.8069 C.ar           1 V4M               -0.0517
     31 C27        -19.3692 134.3103  26.4134 C.ar           1 V4M               -0.0615
     32 H242       -18.7936 132.7885  27.8199 H              1 V4M                0.0630
     33 C25        -17.6257 133.0325  24.6128 C.ar           1 V4M                0.0834
     34 C26        -18.3190 134.1986  24.2256 C.ar           1 V4M               -0.0311
     35 O5         -16.7829 132.3499  23.7520 O.3            1 V4M               -0.3358
     36 H262       -18.1963 134.6195  23.2337 H              1 V4M                0.0651
     37 C28        -19.1911 134.8316  25.1242 C.ar           1 V4M               -0.0596
     38 H272       -20.0393 134.8041  27.1116 H              1 V4M                0.0623
     39 H281       -19.7275 135.7265  24.8214 H              1 V4M                0.0624
     40 C29        -16.0252 132.9580  22.6825 C.3            1 V4M                0.1316
     41 H291       -15.1710 132.3177  22.4316 H              1 V4M                0.0675
     42 H292       -15.6319 133.9286  23.0076 H              1 V4M                0.0675
     43 C30        -16.8378 133.1609  21.3953 C.2            1 V4M                0.2576
     44 N4         -16.4423 132.3419  20.3485 N.am           1 V4M               -0.2052
     45 O6         -17.7040 134.0131  21.2793 O.2            1 V4M               -0.2732
     46 N5         -16.9818 132.4375  19.0987 N.2            1 V4M               -0.1876
     47 H42        -15.7170 131.6585  20.5258 H              1 V4M                0.1787
     48 C31        -16.6768 133.4614  18.3719 C.2            1 V4M                0.0731
     49 C14        -17.4259 133.8506  17.1809 C.ar           1 V4M                0.1104
     50 HC         -15.2832 131.8745  25.3094 H              1 V4M                0.0629
     51 N3         -16.8846 134.5630  16.1876 N.ar           1 V4M               -0.1789
     52 C15        -18.7940 133.5036  16.8919 C.ar           1 V4M                0.0265
     53 C17        -19.7642 132.7830  17.6015 C.ar           1 V4M               -0.0507
     54 C16        -19.0490 134.0433  15.6651 C.ar           1 V4M                0.0606
     55 N6         -17.8906 134.6783  15.2534 N.pl3          1 V4M               -0.2199
     56 C21        -17.6722 135.3846  13.9831 C.3            1 V4M                0.0596
     57 C18        -20.2944 133.9130  15.0370 C.ar           1 V4M               -0.0383
     58 H172       -19.5526 132.3564  18.5770 H              1 V4M                0.0631
     59 H181       -20.4854 134.3465  14.0607 H              1 V4M                0.0644
     60 C20        -21.2943 133.1948  15.7264 C.ar           1 V4M               -0.0603
     61 H201       -22.2752 133.0715  15.2763 H              1 V4M                0.0623
     62 C22        -17.6762 134.4638  12.7721 C.ar           1 V4M               -0.0286
     63 C32        -17.5982 134.9970  11.4723 C.ar           1 V4M               -0.0574
     64 C33        -17.7629 133.0698  12.9444 C.ar           1 V4M               -0.0574
     65 H321       -17.5368 136.0716  11.3262 H              1 V4M                0.0626
     66 C34        -17.5969 134.1441  10.3563 C.ar           1 V4M               -0.0619
     67 H331       -17.8272 132.6496  13.9445 H              1 V4M                0.0626
     68 C35        -17.7625 132.2166  11.8285 C.ar           1 V4M               -0.0619
     69 C36        -17.6769 132.7536  10.5340 C.ar           1 V4M               -0.0623
     70 H342       -17.5343 134.5607   9.3560 H              1 V4M                0.0623
     71 H352       -17.8277 131.1419  11.9680 H              1 V4M                0.0623
     72 H361       -17.6744 132.0943   9.6712 H              1 V4M                0.0623
     73 C19        -21.0307 132.6333  16.9986 C.ar           1 V4M               -0.0615
     74 H191       -21.8108 132.0817  17.5158 H              1 V4M                0.0623
     75 HC1        -15.8886 134.1549  18.6686 H              1 V4M                0.0881
     76 HC2        -18.4610 136.1378  13.8603 H              1 V4M                0.0542
     77 HC3        -16.7157 135.9192  14.0449 H              1 V4M                0.0542
@<TRIPOS>BOND
    1    1    2 ar    
    2    1    4 ar    
    3    2    3 ar    
    4    3    6 ar    
    5    4    5 ar    
    6    5    6 ar    
    7    5   11 1     
    8    6   10 1     
    9    7   10 1     
   10    7   11 am    
   11    7   12 1     
   12    8   15 am    
   13    8   16 am    
   14    9   11 2     
   15   12   13 1     
   16   12   16 1     
   17   13   14 1     
   18   14   15 1     
   19   15   18 2     
   20   16   17 2     
   21   19    1 1     
   22   20    3 1     
   23   21    4 1     
   24   22    8 1     
   25   23   10 1     
   26   24   10 1     
   27   25   12 1     
   28   26   13 1     
   29   27   13 1     
   30   28   14 1     
   31   29   14 1     
   32   30   20 ar    
   33   31   30 ar    
   34   32   30 1     
   35   33   20 ar    
   36   34   33 ar    
   37   35   33 1     
   38   36   34 1     
   39   37   31 ar    
   40   38   31 1     
   41   37   34 ar    
   42   39   37 1     
   43   40   35 1     
   44   41   40 1     
   45   42   40 1     
   46   43   40 1     
   47   44   43 am    
   48   45   43 2     
   49   46   44 1     
   50   47   44 1     
   51   48   46 2     
   52   49   48 1     
   53   50    2 1     
   54   51   49 ar    
   55   52   49 ar    
   56   53   52 ar    
   57   54   52 ar    
   58   55   51 ar    
   59   56   55 1     
   60   57   54 ar    
   61   55   54 ar    
   62   58   53 1     
   63   59   57 1     
   64   60   57 ar    
   65   61   60 1     
   66   62   56 1     
   67   63   62 ar    
   68   64   62 ar    
   69   65   63 1     
   70   66   63 ar    
   71   67   64 1     
   72   68   64 ar    
   73   69   66 ar    
   74   70   66 1     
   75   71   68 1     
   76   69   68 ar    
   77   72   69 1     
   78   73   53 ar    
   79   74   73 1     
   80   73   60 ar    
   81   75   48 1     
   82   76   56 1     
   83   77   56 1     
@<TRIPOS>SUBSTRUCTURE
      1 V4M            1
@<TRIPOS>SET
DONOR_HYDROGENS      STATIC     ATOMS    <user>   **** ""
2 22 47
ATOM$RED        STATIC     ATOMS    COLORGROUP SYSTEM
2 22 47
@<TRIPOS>COMMENT
> <Gold.Version>
5.8.1

> <Gold.Id.Protein>
gspt1+CRBNpiece.pdb|gspt1+CRBNpiece.pdb_protein|mol2

> <Gold.Protein.RotatedTorsions>
[  164  153  152  151 ] final   -5.34 input  179.98 | X-H torsion
[ 3256 3246 3247 3248 ] final   38.03 input -117.12 | X-H torsion
[ 2677 2666 2665 2664 ] final -163.19 input -179.99 | X-H torsion
[ 3012 3001 3000 2999 ] final   91.55 input  179.98 | X-H torsion
[ 3273 3268 3267 3264 ] final   36.07 input -167.03 | X-H torsion
[ 3137 3122 3123 3129 ] final  -96.77 input   37.32 | X-H torsion
[  145  146  149  150 ] final   60.88 input   81.59 |library1|rotamer2|chi1 (LYS)
[  146  149  150  151 ] final  171.93 input  -75.93 |library1|rotamer2|chi2 (LYS)
[  149  150  151  152 ] final  171.02 input -174.75 |library1|rotamer2|chi3 (LYS)
[  150  151  152  153 ] final   51.16 input -165.23 |library1|rotamer2|chi4 (LYS)

> <Gold.Protein.ActiveResidues>
 GLY     PRO     VAL     LYS     TYR     SER     ASN     HIS     ALA     PHE    
 TRP    

> <Gold.Protein.RotatedAtoms>
  -22.2790  151.1413   -7.6752 C.3 0  0  0  0  0  0  0  0  0  0  0  0  # atno 150  bound_to 149  158  159  151 
  -22.2304  152.6227   -7.3487 C.3 0  0  0  0  0  0  0  0  0  0  0  0  # atno 151  bound_to 150  160  161  152 
  -20.8038  153.1473   -7.3398 C.3 0  0  0  0  0  0  0  0  0  0  0  0  # atno 152  bound_to 151  162  163  153 
  -20.0795  152.7743   -8.5895 N.4 0  0  0  0  0  0  0  0  0  0  0  0  # atno 153  bound_to 152  164  165  166 
  -24.3866  151.1833   -8.0095 H   0  0  0  0  0  0  0  0  0  0  0  0  # atno 156  bound_to 149 
  -23.9120  150.5858   -6.4104 H   0  0  0  0  0  0  0  0  0  0  0  0  # atno 157  bound_to 149 
  -21.9862  151.0002   -8.7160 H   0  0  0  0  0  0  0  0  0  0  0  0  # atno 158  bound_to 150 
  -21.5753  150.6121   -7.0323 H   0  0  0  0  0  0  0  0  0  0  0  0  # atno 159  bound_to 150 
  -22.6722  152.7823   -6.3646 H   0  0  0  0  0  0  0  0  0  0  0  0  # atno 160  bound_to 151 
  -22.8076  153.1715   -8.0921 H   0  0  0  0  0  0  0  0  0  0  0  0  # atno 161  bound_to 151 
  -20.2759  152.7250   -6.4851 H   0  0  0  0  0  0  0  0  0  0  0  0  # atno 162  bound_to 152 
  -20.8228  154.2336   -7.2479 H   0  0  0  0  0  0  0  0  0  0  0  0  # atno 163  bound_to 152 
  -20.6642  152.1706   -9.1502 H   0  0  0  0  0  0  0  0  0  0  0  0  # atno 164  bound_to 153 
  -19.8582  153.6094   -9.1123 H   0  0  0  0  0  0  0  0  0  0  0  0  # atno 165  bound_to 153 
  -19.2253  152.2899   -8.3515 H   0  0  0  0  0  0  0  0  0  0  0  0  # atno 166  bound_to 153 
  -22.0277  141.3681   26.4791 H   0  0  0  0  0  0  0  0  0  0  0  0  # atno 2677 bound_to 2666
  -23.6672  141.5371   26.5422 H   0  0  0  0  0  0  0  0  0  0  0  0  # atno 2678 bound_to 2666
  -22.7261  142.8015   26.0568 H   0  0  0  0  0  0  0  0  0  0  0  0  # atno 2679 bound_to 2666
  -19.6582  135.4008   22.0083 H   0  0  0  0  0  0  0  0  0  0  0  0  # atno 3012 bound_to 3001
  -20.6238  136.6079   21.4343 H   0  0  0  0  0  0  0  0  0  0  0  0  # atno 3013 bound_to 3001
  -19.8211  136.8036   22.8615 H   0  0  0  0  0  0  0  0  0  0  0  0  # atno 3014 bound_to 3001
  -23.5608  121.3262   26.3455 H   0  0  0  0  0  0  0  0  0  0  0  0  # atno 3137 bound_to 3122
  -23.5953  122.9247   26.7473 H   0  0  0  0  0  0  0  0  0  0  0  0  # atno 3138 bound_to 3122
  -22.7073  121.8678   27.6491 H   0  0  0  0  0  0  0  0  0  0  0  0  # atno 3139 bound_to 3122
  -23.6066  133.3435   26.1801 H   0  0  0  0  0  0  0  0  0  0  0  0  # atno 3256 bound_to 3246
  -26.4539  131.3511   31.0596 H   0  0  0  0  0  0  0  0  0  0  0  0  # atno 3273 bound_to 3268

> <Gold.Score>
     Score     S(PLP)   S(hbond)     S(cho)   S(metal)  DE(clash)   DE(tors)    DE(con) S(protein)     intcor
    119.18    -117.10       2.49       0.00       0.00       0.13       1.98      -0.00       2.91       1.59

> <Gold.PLP.Fitness>
119.1751

> <Gold.PLP.PLP>
-117.1024

> <Gold.PLP.part.hbond>
-3.0721

> <Gold.PLP.part.metal>
0.0000

> <Gold.PLP.part.buried>
-4.4141

> <Gold.PLP.part.nonpolar>
-118.0939

> <Gold.PLP.part.repulsive>
6.6405

> <Gold.PLP.ligand.clash>
0.1339

> <Gold.PLP.ligand.torsion>
1.9762

> <Gold.PLP.Chemscore.Hbond>
2.4950

> <Gold.PLP.Chemscore.CHOScore>
0.0000

> <Gold.PLP.Chemscore.Metal>
0.0000

> <Gold.Chemscore.Hbonds>
donor molecule, donor type, donor heavy atom, donor atom, acceptor molecule, acceptor atom, score
      L1  H     8    22       P1  3249  1.00
      P1  H  3274  3288       L1    18  0.81
      P1  H  3147  3152       L1     9  0.68

> <Gold.PLP.Chemscore.Protein.Energy>
2.9144

> <Gold.PLP.Chemscore.Internal.Correction>
1.5884

> <Gold.PLP.Constraint>
-0.0000

