#       Name:                J18
#       Creating user name   jamesl
#       Creation time:       Thu Jul  7 08:43:25 2022


#       File generated by GOLD software.
#

@<TRIPOS>MOLECULE
J18|J18|mol2|1|dock3
    77    83     1
SMALL
AMBER


@<TRIPOS>ATOM
      1 C1         -15.0816 130.4266  26.4428 C.ar           1 V4M               -0.0608
      2 C2         -15.8691 131.5231  26.1500 C.ar           1 V4M               -0.0539
      3 C3         -17.1561 131.6271  26.6092 C.ar           1 V4M               -0.0102
      4 C4         -15.6301 129.4180  27.2386 C.ar           1 V4M               -0.0493
      5 C5         -16.9426 129.5442  27.7002 C.ar           1 V4M                0.0427
      6 C6         -17.6794 130.6283  27.3878 C.ar           1 V4M               -0.0101
      7 N1         -19.0191 129.2089  28.7369 N.am           1 V4M               -0.2814
      8 N2         -22.6815 128.8908  29.1288 N.am           1 V4M               -0.2541
      9 O1         -17.3271 127.5838  28.9656 O.2            1 V4M               -0.2717
     10 C7         -19.1028 130.5369  28.0188 C.3            1 V4M                0.0417
     11 C8         -17.7107 128.6188  28.5348 C.2            1 V4M                0.2468
     12 C9         -20.1642 128.7148  29.4743 C.3            1 V4M                0.1037
     13 C10        -20.4384 129.5901  30.7088 C.3            1 V4M               -0.0169
     14 C11        -21.6196 128.9549  31.4778 C.3            1 V4M                0.0270
     15 C12        -22.8384 129.0103  30.5488 C.2            1 V4M                0.2182
     16 C13        -21.3817 128.6995  28.5664 C.2            1 V4M                0.2388
     17 O2         -21.2623 128.5078  27.4037 O.2            1 V4M               -0.2751
     18 O3         -23.9201 129.1639  31.0060 O.2            1 V4M               -0.2773
     19 H1         -14.0717 130.3514  26.0676 H              1 V4M                0.0623
     20 C23        -17.9475 132.8583  26.2884 C.ar           1 V4M                0.0123
     21 H4         -15.0442 128.5477  27.4950 H              1 V4M                0.0631
     22 H2         -23.4900 128.9417  28.5256 H              1 V4M                0.1586
     23 H72        -19.2851 131.3564  28.7141 H              1 V4M                0.0521
     24 H73        -19.8686 130.5098  27.2436 H              1 V4M                0.0521
     25 H9         -19.9580 127.6965  29.8037 H              1 V4M                0.0608
     26 H102       -19.5544 129.6219  31.3457 H              1 V4M                0.0296
     27 H103       -20.7031 130.5995  30.3941 H              1 V4M                0.0296
     28 H112       -21.8182 129.5172  32.3901 H              1 V4M                0.0366
     29 H113       -21.3876 127.9186  31.7238 H              1 V4M                0.0366
     30 C24        -19.2292 132.7430  25.6965 C.ar           1 V4M               -0.0517
     31 C27        -20.0119 133.8765  25.4286 C.ar           1 V4M               -0.0615
     32 H242       -19.6286 131.7605  25.4636 H              1 V4M                0.0630
     33 C25        -17.4748 134.1592  26.6110 C.ar           1 V4M                0.0834
     34 C26        -18.2707 135.2954  26.3543 C.ar           1 V4M               -0.0311
     35 O5         -16.2070 134.2500  27.1604 O.3            1 V4M               -0.3358
     36 H262       -17.9214 136.2914  26.6033 H              1 V4M                0.0651
     37 C28        -19.5340 135.1520  25.7608 C.ar           1 V4M               -0.0596
     38 H272       -20.9928 133.7647  24.9752 H              1 V4M                0.0623
     39 H281       -20.1425 136.0292  25.5597 H              1 V4M                0.0624
     40 C29        -15.5416 135.4858  27.5035 C.3            1 V4M                0.1316
     41 H291       -15.4982 136.1335  26.6198 H              1 V4M                0.0675
     42 H292       -14.5117 135.2809  27.8194 H              1 V4M                0.0675
     43 C30        -16.2506 136.2747  28.6140 C.2            1 V4M                0.2576
     44 N4         -15.8076 135.9651  29.8911 N.am           1 V4M               -0.2052
     45 O6         -17.1688 137.0503  28.4009 O.2            1 V4M               -0.2732
     46 N5         -16.3777 136.4932  31.0129 N.2            1 V4M               -0.1876
     47 H42        -15.0394 135.3126  29.9840 H              1 V4M                0.1787
     48 C31        -15.8955 136.1609  32.1647 C.2            1 V4M                0.0731
     49 C14        -16.6029 136.3790  33.4228 C.ar           1 V4M                0.1104
     50 HC         -15.4604 132.3182  25.5439 H              1 V4M                0.0629
     51 N3         -17.0980 137.5694  33.7765 N.ar           1 V4M               -0.1789
     52 C15        -16.8967 135.3742  34.4127 C.ar           1 V4M                0.0265
     53 C17        -16.6002 134.0072  34.4996 C.ar           1 V4M               -0.0507
     54 C16        -17.6013 136.0234  35.3840 C.ar           1 V4M                0.0606
     55 N6         -17.7146 137.3443  34.9877 N.pl3          1 V4M               -0.2199
     56 C21        -18.4119 138.4250  35.6992 C.3            1 V4M                0.0596
     57 C18        -18.0722 135.3674  36.5288 C.ar           1 V4M               -0.0383
     58 H172       -16.0394 133.4984  33.7217 H              1 V4M                0.0631
     59 H181       -18.6320 135.8944  37.2946 H              1 V4M                0.0644
     60 C20        -17.7883 133.9904  36.6477 C.ar           1 V4M               -0.0603
     61 H201       -18.1333 133.4434  37.5206 H              1 V4M                0.0623
     62 C22        -19.9074 138.1859  35.8434 C.ar           1 V4M               -0.0286
     63 C32        -20.8154 138.8080  34.9669 C.ar           1 V4M               -0.0574
     64 C33        -20.3936 137.3425  36.8597 C.ar           1 V4M               -0.0574
     65 H321       -20.4527 139.4657  34.1821 H              1 V4M                0.0626
     66 C34        -22.1953 138.5813  35.0992 C.ar           1 V4M               -0.0619
     67 H331       -19.6996 136.8608  37.5433 H              1 V4M                0.0626
     68 C35        -21.7735 137.1163  36.9928 C.ar           1 V4M               -0.0619
     69 C36        -22.6746 137.7338  36.1108 C.ar           1 V4M               -0.0623
     70 H342       -22.8911 139.0621  34.4190 H              1 V4M                0.0623
     71 H352       -22.1423 136.4631  37.7777 H              1 V4M                0.0623
     72 H361       -23.7413 137.5574  36.2121 H              1 V4M                0.0623
     73 C19        -17.0586 133.3154  35.6402 C.ar           1 V4M               -0.0615
     74 H191       -16.8495 132.2546  35.7459 H              1 V4M                0.0623
     75 HC1        -14.9610 135.6045  32.2510 H              1 V4M                0.0881
     76 HC2        -17.9701 138.5295  36.6984 H              1 V4M                0.0542
     77 HC3        -18.2322 139.3648  35.1618 H              1 V4M                0.0542
@<TRIPOS>BOND
    1    1    2 ar    
    2    1    4 ar    
    3    2    3 ar    
    4    3    6 ar    
    5    4    5 ar    
    6    5    6 ar    
    7    5   11 1     
    8    6   10 1     
    9    7   10 1     
   10    7   11 am    
   11    7   12 1     
   12    8   15 am    
   13    8   16 am    
   14    9   11 2     
   15   12   13 1     
   16   12   16 1     
   17   13   14 1     
   18   14   15 1     
   19   15   18 2     
   20   16   17 2     
   21   19    1 1     
   22   20    3 1     
   23   21    4 1     
   24   22    8 1     
   25   23   10 1     
   26   24   10 1     
   27   25   12 1     
   28   26   13 1     
   29   27   13 1     
   30   28   14 1     
   31   29   14 1     
   32   30   20 ar    
   33   31   30 ar    
   34   32   30 1     
   35   33   20 ar    
   36   34   33 ar    
   37   35   33 1     
   38   36   34 1     
   39   37   31 ar    
   40   38   31 1     
   41   37   34 ar    
   42   39   37 1     
   43   40   35 1     
   44   41   40 1     
   45   42   40 1     
   46   43   40 1     
   47   44   43 am    
   48   45   43 2     
   49   46   44 1     
   50   47   44 1     
   51   48   46 2     
   52   49   48 1     
   53   50    2 1     
   54   51   49 ar    
   55   52   49 ar    
   56   53   52 ar    
   57   54   52 ar    
   58   55   51 ar    
   59   56   55 1     
   60   57   54 ar    
   61   55   54 ar    
   62   58   53 1     
   63   59   57 1     
   64   60   57 ar    
   65   61   60 1     
   66   62   56 1     
   67   63   62 ar    
   68   64   62 ar    
   69   65   63 1     
   70   66   63 ar    
   71   67   64 1     
   72   68   64 ar    
   73   69   66 ar    
   74   70   66 1     
   75   71   68 1     
   76   69   68 ar    
   77   72   69 1     
   78   73   53 ar    
   79   74   73 1     
   80   73   60 ar    
   81   75   48 1     
   82   76   56 1     
   83   77   56 1     
@<TRIPOS>SUBSTRUCTURE
      1 V4M            1
@<TRIPOS>SET
DONOR_HYDROGENS      STATIC     ATOMS    <user>   **** ""
2 22 47
ATOM$RED        STATIC     ATOMS    COLORGROUP SYSTEM
2 22 47
@<TRIPOS>COMMENT
> <Gold.Version>
5.8.1

> <Gold.Id.Protein>
gspt1+CRBNpiece.pdb|gspt1+CRBNpiece.pdb_protein|mol2

> <Gold.Protein.RotatedTorsions>
[  164  153  152  151 ] final -130.32 input  179.98 | X-H torsion
[ 3256 3246 3247 3248 ] final   69.15 input -117.12 | X-H torsion
[ 2677 2666 2665 2664 ] final -154.79 input -179.99 | X-H torsion
[ 3012 3001 3000 2999 ] final -166.65 input  179.98 | X-H torsion
[ 3273 3268 3267 3264 ] final   47.14 input -167.03 | X-H torsion
[ 3137 3122 3123 3129 ] final   98.33 input   37.32 | X-H torsion
[  145  146  149  150 ] final   61.08 input   81.59 |library1|rotamer2|chi1 (LYS)
[  146  149  150  151 ] final  170.10 input  -75.93 |library1|rotamer2|chi2 (LYS)
[  149  150  151  152 ] final  172.88 input -174.75 |library1|rotamer2|chi3 (LYS)
[  150  151  152  153 ] final   50.93 input -165.23 |library1|rotamer2|chi4 (LYS)

> <Gold.Protein.ActiveResidues>
 GLY     PRO     VAL     LYS     TYR     SER     ASN     HIS     ALA     PHE    
 TRP    

> <Gold.Protein.RotatedAtoms>
  -22.2803  151.1430   -7.6796 C.3 0  0  0  0  0  0  0  0  0  0  0  0  # atno 150  bound_to 149  158  159  151 
  -22.2426  152.6334   -7.3956 C.3 0  0  0  0  0  0  0  0  0  0  0  0  # atno 151  bound_to 150  160  161  152 
  -20.8226  153.1747   -7.4342 C.3 0  0  0  0  0  0  0  0  0  0  0  0  # atno 152  bound_to 151  162  163  153 
  -20.1205  152.7704   -8.6868 N.4 0  0  0  0  0  0  0  0  0  0  0  0  # atno 153  bound_to 152  164  165  166 
  -24.3891  151.1826   -8.0069 H   0  0  0  0  0  0  0  0  0  0  0  0  # atno 156  bound_to 149 
  -23.9085  150.5851   -6.4096 H   0  0  0  0  0  0  0  0  0  0  0  0  # atno 157  bound_to 149 
  -21.9775  150.9735   -8.7133 H   0  0  0  0  0  0  0  0  0  0  0  0  # atno 158  bound_to 150 
  -21.5797  150.6365   -7.0154 H   0  0  0  0  0  0  0  0  0  0  0  0  # atno 159  bound_to 150 
  -22.6639  152.8155   -6.4065 H   0  0  0  0  0  0  0  0  0  0  0  0  # atno 160  bound_to 151 
  -22.8432  153.1543   -8.1406 H   0  0  0  0  0  0  0  0  0  0  0  0  # atno 161  bound_to 151 
  -20.2716  152.7861   -6.5782 H   0  0  0  0  0  0  0  0  0  0  0  0  # atno 162  bound_to 152 
  -20.8532  154.2631   -7.3764 H   0  0  0  0  0  0  0  0  0  0  0  0  # atno 163  bound_to 152 
  -19.2188  152.3778   -8.4558 H   0  0  0  0  0  0  0  0  0  0  0  0  # atno 164  bound_to 153 
  -20.6733  152.0804   -9.1747 H   0  0  0  0  0  0  0  0  0  0  0  0  # atno 165  bound_to 153 
  -19.9943  153.5799   -9.2780 H   0  0  0  0  0  0  0  0  0  0  0  0  # atno 166  bound_to 153 
  -21.9567  141.4804   26.4369 H   0  0  0  0  0  0  0  0  0  0  0  0  # atno 2677 bound_to 2666
  -23.5991  141.4201   26.5758 H   0  0  0  0  0  0  0  0  0  0  0  0  # atno 2678 bound_to 2666
  -22.8652  142.8061   26.0655 H   0  0  0  0  0  0  0  0  0  0  0  0  # atno 2679 bound_to 2666
  -19.6579  136.5583   22.9275 H   0  0  0  0  0  0  0  0  0  0  0  0  # atno 3012 bound_to 3001
  -19.8214  135.4097   21.7559 H   0  0  0  0  0  0  0  0  0  0  0  0  # atno 3013 bound_to 3001
  -20.6237  136.8441   21.6207 H   0  0  0  0  0  0  0  0  0  0  0  0  # atno 3014 bound_to 3001
  -23.1583  122.8869   27.3274 H   0  0  0  0  0  0  0  0  0  0  0  0  # atno 3137 bound_to 3122
  -22.8620  121.2662   27.2700 H   0  0  0  0  0  0  0  0  0  0  0  0  # atno 3138 bound_to 3122
  -23.8434  121.9644   26.1439 H   0  0  0  0  0  0  0  0  0  0  0  0  # atno 3139 bound_to 3122
  -23.2264  133.3138   25.8959 H   0  0  0  0  0  0  0  0  0  0  0  0  # atno 3256 bound_to 3246
  -26.3880  131.4977   31.1276 H   0  0  0  0  0  0  0  0  0  0  0  0  # atno 3273 bound_to 3268

> <Gold.Score>
     Score     S(PLP)   S(hbond)     S(cho)   S(metal)  DE(clash)   DE(tors)    DE(con) S(protein)     intcor
    115.19    -112.78       2.62       0.00       0.00       0.00       2.26      -0.00       2.90       1.99

> <Gold.PLP.Fitness>
115.1919

> <Gold.PLP.PLP>
-112.7752

> <Gold.PLP.part.hbond>
-3.8241

> <Gold.PLP.part.metal>
0.0000

> <Gold.PLP.part.buried>
-9.3264

> <Gold.PLP.part.nonpolar>
-107.8869

> <Gold.PLP.part.repulsive>
5.3516

> <Gold.PLP.ligand.clash>
0.0000

> <Gold.PLP.ligand.torsion>
2.2646

> <Gold.PLP.Chemscore.Hbond>
2.6183

> <Gold.PLP.Chemscore.CHOScore>
0.0000

> <Gold.PLP.Chemscore.Metal>
0.0000

> <Gold.Chemscore.Hbonds>
donor molecule, donor type, donor heavy atom, donor atom, acceptor molecule, acceptor atom, score
      L1  H     8    22       P1  3249  0.91
      P1  H  3274  3288       L1    18  0.93
      P1  H  3147  3152       L1     9  0.78

> <Gold.PLP.Chemscore.Protein.Energy>
2.8997

> <Gold.PLP.Chemscore.Internal.Correction>
1.9909

> <Gold.PLP.Constraint>
-0.0000

