#       Name:                J18
#       Creating user name   jamesl
#       Creation time:       Thu Jul  7 08:43:39 2022


#       File generated by GOLD software.
#

@<TRIPOS>MOLECULE
J18|J18|mol2|1|dock6
    77    83     1
SMALL
AMBER


@<TRIPOS>ATOM
      1 C1         -15.1214 130.4862  26.4249 C.ar           1 V4M               -0.0608
      2 C2         -15.9402 131.5386  26.0642 C.ar           1 V4M               -0.0539
      3 C3         -17.2391 131.6188  26.4936 C.ar           1 V4M               -0.0102
      4 C4         -15.6509 129.4980  27.2584 C.ar           1 V4M               -0.0493
      5 C5         -16.9762 129.5995  27.6885 C.ar           1 V4M                0.0427
      6 C6         -17.7434 130.6406  27.3098 C.ar           1 V4M               -0.0101
      7 N1         -19.0607 129.2408  28.7009 N.am           1 V4M               -0.2814
      8 N2         -22.7218 128.9412  29.1189 N.am           1 V4M               -0.2541
      9 O1         -17.3185 127.6897  29.0403 O.2            1 V4M               -0.2717
     10 C7         -19.1755 130.5289  27.9176 C.3            1 V4M                0.0417
     11 C8         -17.7288 128.6885  28.5525 C.2            1 V4M                0.2468
     12 C9         -20.2030 128.7422  29.4398 C.3            1 V4M                0.1037
     13 C10        -20.4605 129.5985  30.6910 C.3            1 V4M               -0.0169
     14 C11        -21.6396 128.9587  31.4594 C.3            1 V4M                0.0270
     15 C12        -22.8658 129.0380  30.5419 C.2            1 V4M                0.2182
     16 C13        -21.4282 128.7505  28.5423 C.2            1 V4M                0.2388
     17 O2         -21.3200 128.5775  27.3755 O.2            1 V4M               -0.2751
     18 O3         -23.9424 129.1913  31.0110 O.2            1 V4M               -0.2773
     19 H1         -14.1019 130.4290  26.0729 H              1 V4M                0.0623
     20 C23        -18.0659 132.8042  26.0983 C.ar           1 V4M                0.0123
     21 H4         -15.0406 128.6625  27.5678 H              1 V4M                0.0631
     22 H2         -23.5350 129.0077  28.5236 H              1 V4M                0.1586
     23 H72        -19.4003 131.3738  28.5685 H              1 V4M                0.0521
     24 H73        -19.9238 130.4375  27.1303 H              1 V4M                0.0521
     25 H9         -20.0010 127.7171  29.7504 H              1 V4M                0.0608
     26 H102       -19.5709 129.6136  31.3207 H              1 V4M                0.0296
     27 H103       -20.7208 130.6149  30.3955 H              1 V4M                0.0296
     28 H112       -21.8266 129.5070  32.3827 H              1 V4M                0.0366
     29 H113       -21.4128 127.9169  31.6861 H              1 V4M                0.0366
     30 C24        -19.2694 132.6197  25.3744 C.ar           1 V4M               -0.0517
     31 C27        -20.0870 133.7074  25.0321 C.ar           1 V4M               -0.0615
     32 H242       -19.5819 131.6179  25.0952 H              1 V4M                0.0630
     33 C25        -17.7093 134.1271  26.4761 C.ar           1 V4M                0.0834
     34 C26        -18.5415 135.2167  26.1436 C.ar           1 V4M               -0.0311
     35 O5         -16.5138 134.2868  27.1562 O.3            1 V4M               -0.3358
     36 H262       -18.2813 136.2288  26.4336 H              1 V4M                0.0651
     37 C28        -19.7248 135.0052  25.4199 C.ar           1 V4M               -0.0596
     38 H272       -21.0066 133.5427  24.4775 H              1 V4M                0.0623
     39 H281       -20.3611 135.8468  25.1609 H              1 V4M                0.0624
     40 C29        -15.8216 135.5437  27.3267 C.3            1 V4M                0.1316
     41 H291       -15.5148 135.9264  26.3460 H              1 V4M                0.0675
     42 H292       -14.9155 135.3934  27.9258 H              1 V4M                0.0675
     43 C30        -16.6794 136.6292  27.9931 C.2            1 V4M                0.2576
     44 N4         -16.6870 136.5650  29.3783 N.am           1 V4M               -0.2052
     45 O6         -17.3505 137.4309  27.3631 O.2            1 V4M               -0.2732
     46 N5         -17.4614 137.3855  30.1460 N.2            1 V4M               -0.1876
     47 H42        -16.1012 135.8719  29.8265 H              1 V4M                0.1787
     48 C31        -17.6406 137.0797  31.3886 C.2            1 V4M                0.0731
     49 C14        -18.6904 137.6674  32.2152 C.ar           1 V4M                0.1104
     50 HC         -15.5469 132.3177  25.4280 H              1 V4M                0.0629
     51 N3         -18.4987 138.0057  33.4943 N.ar           1 V4M               -0.1789
     52 C15        -20.0245 137.9951  31.7808 C.ar           1 V4M                0.0265
     53 C17        -20.6931 137.8410  30.5589 C.ar           1 V4M               -0.0507
     54 C16        -20.6282 138.5546  32.8689 C.ar           1 V4M                0.0606
     55 N6         -19.6979 138.5542  33.8931 N.pl3          1 V4M               -0.2199
     56 C21        -19.8796 139.0790  35.2539 C.3            1 V4M                0.0596
     57 C18        -21.9528 139.0095  32.8353 C.ar           1 V4M               -0.0383
     58 H172       -20.2049 137.3952  29.6979 H              1 V4M                0.0631
     59 H181       -22.4224 139.4532  33.7073 H              1 V4M                0.0644
     60 C20        -22.6550 138.8666  31.6198 C.ar           1 V4M               -0.0603
     61 H201       -23.6851 139.2045  31.5508 H              1 V4M                0.0623
     62 C22        -20.8564 138.2652  36.0892 C.ar           1 V4M               -0.0286
     63 C32        -22.2425 138.3792  35.8756 C.ar           1 V4M               -0.0574
     64 C33        -20.3790 137.3943  37.0863 C.ar           1 V4M               -0.0574
     65 H321       -22.6234 139.0524  35.1128 H              1 V4M                0.0626
     66 C34        -23.1418 137.6226  36.6448 C.ar           1 V4M               -0.0619
     67 H331       -19.3103 137.3028  37.2605 H              1 V4M                0.0626
     68 C35        -21.2781 136.6382  37.8563 C.ar           1 V4M               -0.0619
     69 C36        -22.6600 136.7504  37.6339 C.ar           1 V4M               -0.0623
     70 H342       -24.2099 137.7130  36.4744 H              1 V4M                0.0623
     71 H352       -20.9037 135.9667  38.6229 H              1 V4M                0.0623
     72 H361       -23.3552 136.1644  38.2276 H              1 V4M                0.0623
     73 C19        -22.0294 138.2876  30.4900 C.ar           1 V4M               -0.0615
     74 H191       -22.5832 138.1861  29.5609 H              1 V4M                0.0623
     75 HC1        -17.0682 136.2834  31.8665 H              1 V4M                0.0881
     76 HC2        -18.9047 139.0919  35.7580 H              1 V4M                0.0542
     77 HC3        -20.2239 140.1185  35.1803 H              1 V4M                0.0542
@<TRIPOS>BOND
    1    1    2 ar    
    2    1    4 ar    
    3    2    3 ar    
    4    3    6 ar    
    5    4    5 ar    
    6    5    6 ar    
    7    5   11 1     
    8    6   10 1     
    9    7   10 1     
   10    7   11 am    
   11    7   12 1     
   12    8   15 am    
   13    8   16 am    
   14    9   11 2     
   15   12   13 1     
   16   12   16 1     
   17   13   14 1     
   18   14   15 1     
   19   15   18 2     
   20   16   17 2     
   21   19    1 1     
   22   20    3 1     
   23   21    4 1     
   24   22    8 1     
   25   23   10 1     
   26   24   10 1     
   27   25   12 1     
   28   26   13 1     
   29   27   13 1     
   30   28   14 1     
   31   29   14 1     
   32   30   20 ar    
   33   31   30 ar    
   34   32   30 1     
   35   33   20 ar    
   36   34   33 ar    
   37   35   33 1     
   38   36   34 1     
   39   37   31 ar    
   40   38   31 1     
   41   37   34 ar    
   42   39   37 1     
   43   40   35 1     
   44   41   40 1     
   45   42   40 1     
   46   43   40 1     
   47   44   43 am    
   48   45   43 2     
   49   46   44 1     
   50   47   44 1     
   51   48   46 2     
   52   49   48 1     
   53   50    2 1     
   54   51   49 ar    
   55   52   49 ar    
   56   53   52 ar    
   57   54   52 ar    
   58   55   51 ar    
   59   56   55 1     
   60   57   54 ar    
   61   55   54 ar    
   62   58   53 1     
   63   59   57 1     
   64   60   57 ar    
   65   61   60 1     
   66   62   56 1     
   67   63   62 ar    
   68   64   62 ar    
   69   65   63 1     
   70   66   63 ar    
   71   67   64 1     
   72   68   64 ar    
   73   69   66 ar    
   74   70   66 1     
   75   71   68 1     
   76   69   68 ar    
   77   72   69 1     
   78   73   53 ar    
   79   74   73 1     
   80   73   60 ar    
   81   75   48 1     
   82   76   56 1     
   83   77   56 1     
@<TRIPOS>SUBSTRUCTURE
      1 V4M            1
@<TRIPOS>SET
DONOR_HYDROGENS      STATIC     ATOMS    <user>   **** ""
2 22 47
ATOM$RED        STATIC     ATOMS    COLORGROUP SYSTEM
2 22 47
@<TRIPOS>COMMENT
> <Gold.Version>
5.8.1

> <Gold.Id.Protein>
gspt1+CRBNpiece.pdb|gspt1+CRBNpiece.pdb_protein|mol2

> <Gold.Protein.RotatedTorsions>
[  164  153  152  151 ] final  172.61 input  179.98 | X-H torsion
[ 3256 3246 3247 3248 ] final  143.87 input -117.12 | X-H torsion
[ 2677 2666 2665 2664 ] final  163.68 input -179.99 | X-H torsion
[ 3012 3001 3000 2999 ] final  -26.23 input  179.98 | X-H torsion
[ 3273 3268 3267 3264 ] final   52.89 input -167.03 | X-H torsion
[ 3137 3122 3123 3129 ] final   33.37 input   37.32 | X-H torsion
[  145  146  149  150 ] final   61.50 input   81.59 |library1|rotamer2|chi1 (LYS)
[  146  149  150  151 ] final  172.09 input  -75.93 |library1|rotamer2|chi2 (LYS)
[  149  150  151  152 ] final  171.23 input -174.75 |library1|rotamer2|chi3 (LYS)
[  150  151  152  153 ] final   50.82 input -165.23 |library1|rotamer2|chi4 (LYS)

> <Gold.Protein.ActiveResidues>
 GLY     PRO     VAL     LYS     TYR     SER     ASN     HIS     ALA     PHE    
 TRP    

> <Gold.Protein.RotatedAtoms>
  -22.2832  151.1465   -7.6888 C.3 0  0  0  0  0  0  0  0  0  0  0  0  # atno 150  bound_to 149  158  159  151 
  -22.2356  152.6268   -7.3574 C.3 0  0  0  0  0  0  0  0  0  0  0  0  # atno 151  bound_to 150  160  161  152 
  -20.8110  153.1570   -7.3676 C.3 0  0  0  0  0  0  0  0  0  0  0  0  # atno 152  bound_to 151  162  163  153 
  -20.1011  152.7844   -8.6256 N.4 0  0  0  0  0  0  0  0  0  0  0  0  # atno 153  bound_to 152  164  165  166 
  -24.3942  151.1813   -8.0016 H   0  0  0  0  0  0  0  0  0  0  0  0  # atno 156  bound_to 149 
  -23.9013  150.5838   -6.4080 H   0  0  0  0  0  0  0  0  0  0  0  0  # atno 157  bound_to 149 
  -22.0017  151.0100   -8.7333 H   0  0  0  0  0  0  0  0  0  0  0  0  # atno 158  bound_to 150 
  -21.5706  150.6172   -7.0557 H   0  0  0  0  0  0  0  0  0  0  0  0  # atno 159  bound_to 150 
  -22.6635  152.7810   -6.3663 H   0  0  0  0  0  0  0  0  0  0  0  0  # atno 160  bound_to 151 
  -22.8258  153.1760   -8.0902 H   0  0  0  0  0  0  0  0  0  0  0  0  # atno 161  bound_to 151 
  -20.2707  152.7384   -6.5189 H   0  0  0  0  0  0  0  0  0  0  0  0  # atno 162  bound_to 152 
  -20.8332  154.2434   -7.2775 H   0  0  0  0  0  0  0  0  0  0  0  0  # atno 163  bound_to 152 
  -19.2051  153.2500   -8.6573 H   0  0  0  0  0  0  0  0  0  0  0  0  # atno 164  bound_to 153 
  -19.9622  151.7845   -8.6501 H   0  0  0  0  0  0  0  0  0  0  0  0  # atno 165  bound_to 153 
  -20.6560  153.0667   -9.4213 H   0  0  0  0  0  0  0  0  0  0  0  0  # atno 166  bound_to 153 
  -22.4514  141.0561   26.6129 H   0  0  0  0  0  0  0  0  0  0  0  0  # atno 2677 bound_to 2666
  -23.7476  142.0490   26.3793 H   0  0  0  0  0  0  0  0  0  0  0  0  # atno 2678 bound_to 2666
  -22.2219  142.6021   26.0857 H   0  0  0  0  0  0  0  0  0  0  0  0  # atno 2679 bound_to 2666
  -20.6202  136.5766   21.4158 H   0  0  0  0  0  0  0  0  0  0  0  0  # atno 3012 bound_to 3001
  -19.8433  136.8296   22.8480 H   0  0  0  0  0  0  0  0  0  0  0  0  # atno 3013 bound_to 3001
  -19.6394  135.4061   22.0406 H   0  0  0  0  0  0  0  0  0  0  0  0  # atno 3014 bound_to 3001
  -22.7202  122.0322   27.6780 H   0  0  0  0  0  0  0  0  0  0  0  0  # atno 3137 bound_to 3122
  -23.4656  121.2299   26.4457 H   0  0  0  0  0  0  0  0  0  0  0  0  # atno 3138 bound_to 3122
  -23.6782  122.8560   26.6174 H   0  0  0  0  0  0  0  0  0  0  0  0  # atno 3139 bound_to 3122
  -23.2174  133.3365   24.8203 H   0  0  0  0  0  0  0  0  0  0  0  0  # atno 3256 bound_to 3246
  -26.3656  131.5793   31.1603 H   0  0  0  0  0  0  0  0  0  0  0  0  # atno 3273 bound_to 3268

> <Gold.Score>
     Score     S(PLP)   S(hbond)     S(cho)   S(metal)  DE(clash)   DE(tors)    DE(con) S(protein)     intcor
    110.72    -110.57       2.41       0.00       0.00       0.65       2.54      -0.00       2.93       1.59

> <Gold.PLP.Fitness>
110.7158

> <Gold.PLP.PLP>
-110.5671

> <Gold.PLP.part.hbond>
-2.4970

> <Gold.PLP.part.metal>
0.0000

> <Gold.PLP.part.buried>
-9.9190

> <Gold.PLP.part.nonpolar>
-107.2219

> <Gold.PLP.part.repulsive>
6.4863

> <Gold.PLP.ligand.clash>
0.6491

> <Gold.PLP.ligand.torsion>
2.5411

> <Gold.PLP.Chemscore.Hbond>
2.4070

> <Gold.PLP.Chemscore.CHOScore>
0.0000

> <Gold.PLP.Chemscore.Metal>
0.0000

> <Gold.Chemscore.Hbonds>
donor molecule, donor type, donor heavy atom, donor atom, acceptor molecule, acceptor atom, score
      L1  H     8    22       P1  3249  0.91
      P1  H  3274  3288       L1    18  0.98
      P1  H  3147  3152       L1     9  0.52

> <Gold.PLP.Chemscore.Protein.Energy>
2.9293

> <Gold.PLP.Chemscore.Internal.Correction>
1.5884

> <Gold.PLP.Constraint>
-0.0000

