#       Name:                J18
#       Creating user name   jamesl
#       Creation time:       Thu Jul  7 08:43:49 2022


#       File generated by GOLD software.
#

@<TRIPOS>MOLECULE
J18|J18|mol2|1|dock8
    77    83     1
SMALL
AMBER


@<TRIPOS>ATOM
      1 C1         -15.0257 130.1282  26.3900 C.ar           1 V4M               -0.0608
      2 C2         -15.8265 131.1564  25.9321 C.ar           1 V4M               -0.0539
      3 C3         -17.1320 131.2824  26.3292 C.ar           1 V4M               -0.0102
      4 C4         -15.5809 129.2139  27.2886 C.ar           1 V4M               -0.0493
      5 C5         -16.9127 129.3614  27.6842 C.ar           1 V4M                0.0427
      6 C6         -17.6616 130.3764  27.2103 C.ar           1 V4M               -0.0101
      7 N1         -19.0189 129.1032  28.6822 N.am           1 V4M               -0.2814
      8 N2         -22.6885 128.9697  29.1110 N.am           1 V4M               -0.2541
      9 O1         -17.3000 127.5675  29.1756 O.2            1 V4M               -0.2717
     10 C7         -19.1056 130.3265  27.7978 C.3            1 V4M                0.0417
     11 C8         -17.6906 128.5285  28.6030 C.2            1 V4M                0.2468
     12 C9         -20.1797 128.6753  29.4363 C.3            1 V4M                0.1037
     13 C10        -20.3990 129.5787  30.6614 C.3            1 V4M               -0.0169
     14 C11        -21.6024 129.0120  31.4493 C.3            1 V4M                0.0270
     15 C12        -22.8259 129.1151  30.5305 C.2            1 V4M                0.2182
     16 C13        -21.4051 128.7079  28.5396 C.2            1 V4M                0.2388
     17 O2         -21.3063 128.4956  27.3785 O.2            1 V4M               -0.2751
     18 O3         -23.8943 129.3273  30.9954 O.2            1 V4M               -0.2773
     19 H1         -14.0008 130.0338  26.0630 H              1 V4M                0.0623
     20 C23        -17.9387 132.4406  25.8262 C.ar           1 V4M                0.0123
     21 H4         -14.9854 128.3997  27.6744 H              1 V4M                0.0631
     22 H2         -23.4993 129.0524  28.5143 H              1 V4M                0.1586
     23 H72        -19.3329 131.2222  28.3758 H              1 V4M                0.0521
     24 H73        -19.8404 130.1802  27.0062 H              1 V4M                0.0521
     25 H9         -20.0202 127.6524  29.7774 H              1 V4M                0.0608
     26 H102       -19.5084 129.5754  31.2899 H              1 V4M                0.0296
     27 H103       -20.6170 130.5958  30.3357 H              1 V4M                0.0296
     28 H112       -21.7646 129.5951  32.3558 H              1 V4M                0.0366
     29 H113       -21.4189 127.9689  31.7070 H              1 V4M                0.0366
     30 C24        -18.8910 133.0615  26.6711 C.ar           1 V4M               -0.0517
     31 C27        -19.6265 134.1770  26.2426 C.ar           1 V4M               -0.0615
     32 H242       -19.0437 132.6857  27.6784 H              1 V4M                0.0630
     33 C25        -17.7423 132.9838  24.5276 C.ar           1 V4M                0.0834
     34 C26        -18.4725 134.1148  24.1057 C.ar           1 V4M               -0.0311
     35 O5         -16.8289 132.3422  23.7084 O.3            1 V4M               -0.3358
     36 H262       -18.3247 134.5406  23.1193 H              1 V4M                0.0651
     37 C28        -19.4145 134.7056  24.9614 C.ar           1 V4M               -0.0596
     38 H272       -20.3511 134.6384  26.9078 H              1 V4M                0.0623
     39 H281       -19.9790 135.5733  24.6318 H              1 V4M                0.0624
     40 C29        -16.1092 132.9687  22.6235 C.3            1 V4M                0.1316
     41 H291       -15.1219 132.5021  22.5240 H              1 V4M                0.0675
     42 H292       -15.9561 134.0326  22.8412 H              1 V4M                0.0675
     43 C30        -16.8148 132.8395  21.2656 C.2            1 V4M                0.2576
     44 N4         -16.3932 133.7672  20.3250 N.am           1 V4M               -0.2052
     45 O6         -17.7142 132.0422  21.0532 O.2            1 V4M               -0.2732
     46 N5         -16.9654 133.8713  19.0905 N.2            1 V4M               -0.1876
     47 H42        -15.6397 134.3939  20.5781 H              1 V4M                0.1787
     48 C31        -18.2521 133.7961  18.9987 C.2            1 V4M                0.0731
     49 C14        -18.9533 133.5592  17.7405 C.ar           1 V4M                0.1104
     50 HC         -15.4133 131.8791  25.2441 H              1 V4M                0.0629
     51 N3         -20.1216 132.9127  17.6750 N.ar           1 V4M               -0.1789
     52 C15        -18.5273 134.0050  16.4384 C.ar           1 V4M                0.0265
     53 C17        -17.3998 134.7090  15.9943 C.ar           1 V4M               -0.0507
     54 C16        -19.5064 133.5949  15.5813 C.ar           1 V4M                0.0606
     55 N6         -20.4596 132.9384  16.3397 N.pl3          1 V4M               -0.2199
     56 C21        -21.7140 132.3410  15.8605 C.3            1 V4M                0.0596
     57 C18        -19.4478 133.8497  14.2050 C.ar           1 V4M               -0.0383
     58 H172       -16.6257 135.0321  16.6834 H              1 V4M                0.0631
     59 H181       -20.2329 133.5186  13.5330 H              1 V4M                0.0644
     60 C20        -18.3237 134.5548  13.7252 C.ar           1 V4M               -0.0603
     61 H201       -18.2376 134.7719  12.6643 H              1 V4M                0.0623
     62 C22        -22.9496 132.8932  16.5553 C.ar           1 V4M               -0.0286
     63 C32        -22.9497 133.1032  17.9466 C.ar           1 V4M               -0.0574
     64 C33        -24.1047 133.1940  15.8098 C.ar           1 V4M               -0.0574
     65 H321       -22.0661 132.8694  18.5337 H              1 V4M                0.0626
     66 C34        -24.0901 133.6182  18.5846 C.ar           1 V4M               -0.0619
     67 H331       -24.1146 133.0315  14.7353 H              1 V4M                0.0626
     68 C35        -25.2456 133.7081  16.4476 C.ar           1 V4M               -0.0619
     69 C36        -25.2377 133.9227  17.8352 C.ar           1 V4M               -0.0623
     70 H342       -24.0839 133.7802  19.6578 H              1 V4M                0.0623
     71 H352       -26.1331 133.9400  15.8668 H              1 V4M                0.0623
     72 H361       -26.1188 134.3222  18.3283 H              1 V4M                0.0623
     73 C19        -17.3080 134.9820  14.6134 C.ar           1 V4M               -0.0615
     74 H191       -16.4496 135.5252  14.2285 H              1 V4M                0.0623
     75 HC1        -18.8873 133.8110  19.8855 H              1 V4M                0.0881
     76 HC2        -21.8003 132.5242  14.7818 H              1 V4M                0.0542
     77 HC3        -21.6565 131.2545  16.0044 H              1 V4M                0.0542
@<TRIPOS>BOND
    1    1    2 ar    
    2    1    4 ar    
    3    2    3 ar    
    4    3    6 ar    
    5    4    5 ar    
    6    5    6 ar    
    7    5   11 1     
    8    6   10 1     
    9    7   10 1     
   10    7   11 am    
   11    7   12 1     
   12    8   15 am    
   13    8   16 am    
   14    9   11 2     
   15   12   13 1     
   16   12   16 1     
   17   13   14 1     
   18   14   15 1     
   19   15   18 2     
   20   16   17 2     
   21   19    1 1     
   22   20    3 1     
   23   21    4 1     
   24   22    8 1     
   25   23   10 1     
   26   24   10 1     
   27   25   12 1     
   28   26   13 1     
   29   27   13 1     
   30   28   14 1     
   31   29   14 1     
   32   30   20 ar    
   33   31   30 ar    
   34   32   30 1     
   35   33   20 ar    
   36   34   33 ar    
   37   35   33 1     
   38   36   34 1     
   39   37   31 ar    
   40   38   31 1     
   41   37   34 ar    
   42   39   37 1     
   43   40   35 1     
   44   41   40 1     
   45   42   40 1     
   46   43   40 1     
   47   44   43 am    
   48   45   43 2     
   49   46   44 1     
   50   47   44 1     
   51   48   46 2     
   52   49   48 1     
   53   50    2 1     
   54   51   49 ar    
   55   52   49 ar    
   56   53   52 ar    
   57   54   52 ar    
   58   55   51 ar    
   59   56   55 1     
   60   57   54 ar    
   61   55   54 ar    
   62   58   53 1     
   63   59   57 1     
   64   60   57 ar    
   65   61   60 1     
   66   62   56 1     
   67   63   62 ar    
   68   64   62 ar    
   69   65   63 1     
   70   66   63 ar    
   71   67   64 1     
   72   68   64 ar    
   73   69   66 ar    
   74   70   66 1     
   75   71   68 1     
   76   69   68 ar    
   77   72   69 1     
   78   73   53 ar    
   79   74   73 1     
   80   73   60 ar    
   81   75   48 1     
   82   76   56 1     
   83   77   56 1     
@<TRIPOS>SUBSTRUCTURE
      1 V4M            1
@<TRIPOS>SET
DONOR_HYDROGENS      STATIC     ATOMS    <user>   **** ""
2 22 47
ATOM$RED        STATIC     ATOMS    COLORGROUP SYSTEM
2 22 47
@<TRIPOS>COMMENT
> <Gold.Version>
5.8.1

> <Gold.Id.Protein>
gspt1+CRBNpiece.pdb|gspt1+CRBNpiece.pdb_protein|mol2

> <Gold.Protein.RotatedTorsions>
[  164  153  152  151 ] final   59.51 input  179.98 | X-H torsion
[ 3256 3246 3247 3248 ] final  143.29 input -117.12 | X-H torsion
[ 2677 2666 2665 2664 ] final -144.84 input -179.99 | X-H torsion
[ 3012 3001 3000 2999 ] final   15.55 input  179.98 | X-H torsion
[ 3273 3268 3267 3264 ] final   87.82 input -167.03 | X-H torsion
[ 3137 3122 3123 3129 ] final -135.89 input   37.32 | X-H torsion
[  145  146  149  150 ] final   59.28 input   81.59 |library1|rotamer2|chi1 (LYS)
[  146  149  150  151 ] final  170.56 input  -75.93 |library1|rotamer2|chi2 (LYS)
[  149  150  151  152 ] final  170.27 input -174.75 |library1|rotamer2|chi3 (LYS)
[  150  151  152  153 ] final   50.40 input -165.23 |library1|rotamer2|chi4 (LYS)

> <Gold.Protein.ActiveResidues>
 GLY     PRO     VAL     LYS     TYR     SER     ASN     HIS     ALA     PHE    
 TRP    

> <Gold.Protein.RotatedAtoms>
  -22.2689  151.1281   -7.6402 C.3 0  0  0  0  0  0  0  0  0  0  0  0  # atno 150  bound_to 149  158  159  151 
  -22.2220  152.6168   -7.3485 C.3 0  0  0  0  0  0  0  0  0  0  0  0  # atno 151  bound_to 150  160  161  152 
  -20.7925  153.1297   -7.2841 C.3 0  0  0  0  0  0  0  0  0  0  0  0  # atno 152  bound_to 151  162  163  153 
  -20.0077  152.7038   -8.4792 N.4 0  0  0  0  0  0  0  0  0  0  0  0  # atno 153  bound_to 152  164  165  166 
  -24.3666  151.1882   -8.0296 H   0  0  0  0  0  0  0  0  0  0  0  0  # atno 156  bound_to 149 
  -23.9394  150.5908   -6.4171 H   0  0  0  0  0  0  0  0  0  0  0  0  # atno 157  bound_to 149 
  -21.9408  150.9596   -8.6662 H   0  0  0  0  0  0  0  0  0  0  0  0  # atno 158  bound_to 150 
  -21.5918  150.6109   -6.9601 H   0  0  0  0  0  0  0  0  0  0  0  0  # atno 159  bound_to 150 
  -22.7089  152.8049   -6.3911 H   0  0  0  0  0  0  0  0  0  0  0  0  # atno 160  bound_to 151 
  -22.7578  153.1514   -8.1323 H   0  0  0  0  0  0  0  0  0  0  0  0  # atno 161  bound_to 151 
  -20.3145  152.7357   -6.3877 H   0  0  0  0  0  0  0  0  0  0  0  0  # atno 162  bound_to 152 
  -20.8054  154.2188   -7.2339 H   0  0  0  0  0  0  0  0  0  0  0  0  # atno 163  bound_to 152 
  -20.4467  153.0622   -9.3156 H   0  0  0  0  0  0  0  0  0  0  0  0  # atno 164  bound_to 153 
  -19.0675  153.0657   -8.4107 H   0  0  0  0  0  0  0  0  0  0  0  0  # atno 165  bound_to 153 
  -19.9779  151.6947   -8.5200 H   0  0  0  0  0  0  0  0  0  0  0  0  # atno 166  bound_to 153 
  -21.8962  141.6251   26.3848 H   0  0  0  0  0  0  0  0  0  0  0  0  # atno 2677 bound_to 2666
  -23.4966  141.2950   26.6095 H   0  0  0  0  0  0  0  0  0  0  0  0  # atno 2678 bound_to 2666
  -23.0282  142.7864   26.0838 H   0  0  0  0  0  0  0  0  0  0  0  0  # atno 2679 bound_to 2666
  -20.3933  135.9512   21.2793 H   0  0  0  0  0  0  0  0  0  0  0  0  # atno 3012 bound_to 3001
  -20.2687  137.1374   22.4177 H   0  0  0  0  0  0  0  0  0  0  0  0  # atno 3013 bound_to 3001
  -19.4410  135.7237   22.6073 H   0  0  0  0  0  0  0  0  0  0  0  0  # atno 3014 bound_to 3001
  -23.8232  121.8712   26.1449 H   0  0  0  0  0  0  0  0  0  0  0  0  # atno 3137 bound_to 3122
  -23.2156  122.9235   27.2591 H   0  0  0  0  0  0  0  0  0  0  0  0  # atno 3138 bound_to 3122
  -22.8245  121.3236   27.3381 H   0  0  0  0  0  0  0  0  0  0  0  0  # atno 3139 bound_to 3122
  -23.2121  133.3358   24.8274 H   0  0  0  0  0  0  0  0  0  0  0  0  # atno 3256 bound_to 3246
  -26.4122  132.1018   31.3012 H   0  0  0  0  0  0  0  0  0  0  0  0  # atno 3273 bound_to 3268

> <Gold.Score>
     Score     S(PLP)   S(hbond)     S(cho)   S(metal)  DE(clash)   DE(tors)    DE(con) S(protein)     intcor
    109.14    -110.53       2.29       0.00       0.00       2.50       2.28      -0.00       2.80       1.59

> <Gold.PLP.Fitness>
109.1400

> <Gold.PLP.PLP>
-110.5335

> <Gold.PLP.part.hbond>
-2.2516

> <Gold.PLP.part.metal>
0.0000

> <Gold.PLP.part.buried>
-8.1677

> <Gold.PLP.part.nonpolar>
-109.7532

> <Gold.PLP.part.repulsive>
6.9250

> <Gold.PLP.ligand.clash>
2.5017

> <Gold.PLP.ligand.torsion>
2.2794

> <Gold.PLP.Chemscore.Hbond>
2.2925

> <Gold.PLP.Chemscore.CHOScore>
0.0000

> <Gold.PLP.Chemscore.Metal>
0.0000

> <Gold.Chemscore.Hbonds>
donor molecule, donor type, donor heavy atom, donor atom, acceptor molecule, acceptor atom, score
      L1  H     8    22       P1  3249  0.96
      P1  H  3274  3288       L1    18  0.84
      P1  H  3147  3152       L1     9  0.49

> <Gold.PLP.Chemscore.Protein.Energy>
2.7988

> <Gold.PLP.Chemscore.Internal.Correction>
1.5884

> <Gold.PLP.Constraint>
-0.0000

