#       Name:                J18
#       Creating user name   jamesl
#       Creation time:       Thu Jul  7 08:43:44 2022


#       File generated by GOLD software.
#

@<TRIPOS>MOLECULE
J18|J18|mol2|1|dock7
    77    83     1
SMALL
AMBER


@<TRIPOS>ATOM
      1 C1         -15.2737 130.2748  26.4843 C.ar           1 V4M               -0.0608
      2 C2         -16.0703 131.3432  26.1209 C.ar           1 V4M               -0.0539
      3 C3         -17.3605 131.4625  26.5668 C.ar           1 V4M               -0.0102
      4 C4         -15.8166 129.3116  27.3383 C.ar           1 V4M               -0.0493
      5 C5         -17.1327 129.4529  27.7850 C.ar           1 V4M                0.0427
      6 C6         -17.8783 130.5083  27.4030 C.ar           1 V4M               -0.0101
      7 N1         -19.2113 129.1614  28.8307 N.am           1 V4M               -0.2814
      8 N2         -22.8733 128.9302  29.2827 N.am           1 V4M               -0.2541
      9 O1         -17.5049 127.5703  29.1669 O.2            1 V4M               -0.2717
     10 C7         -19.3041 130.4417  28.0318 C.3            1 V4M                0.0417
     11 C8         -17.8962 128.5730  28.6715 C.2            1 V4M                0.2468
     12 C9         -20.3555 128.7021  29.5918 C.3            1 V4M                0.1037
     13 C10        -20.5908 129.5985  30.8191 C.3            1 V4M               -0.0169
     14 C11        -21.7737 128.9995  31.6141 C.3            1 V4M                0.0270
     15 C12        -23.0054 129.0707  30.7033 C.2            1 V4M                0.2182
     16 C13        -21.5871 128.7029  28.7029 C.2            1 V4M                0.2388
     17 O2         -21.4901 128.4942  27.5410 O.2            1 V4M               -0.2751
     18 O3         -24.0760 129.2541  31.1751 O.2            1 V4M               -0.2773
     19 H1         -14.2612 130.1867  26.1192 H              1 V4M                0.0623
     20 C23        -18.1622 132.6636  26.1671 C.ar           1 V4M                0.0123
     21 H4         -15.2237 128.4646  27.6505 H              1 V4M                0.0631
     22 H2         -23.6898 128.9918  28.6913 H              1 V4M                0.1586
     23 H72        -19.4979 131.3005  28.6744 H              1 V4M                0.0521
     24 H73        -20.0654 130.3593  27.2562 H              1 V4M                0.0521
     25 H9         -20.1668 127.6836  29.9309 H              1 V4M                0.0608
     26 H102       -19.6965 129.6184  31.4419 H              1 V4M                0.0296
     27 H103       -20.8379 130.6097  30.4958 H              1 V4M                0.0296
     28 H112       -21.9456 129.5774  32.5222 H              1 V4M                0.0366
     29 H113       -21.5610 127.9614  31.8697 H              1 V4M                0.0366
     30 C24        -19.4479 132.4999  25.5957 C.ar           1 V4M               -0.0517
     31 C27        -20.2397 133.6072  25.2555 C.ar           1 V4M               -0.0615
     32 H242       -19.8431 131.5012  25.4358 H              1 V4M                0.0630
     33 C25        -17.6949 133.9866  26.3935 C.ar           1 V4M                0.0834
     34 C26        -18.4999 135.0975  26.0644 C.ar           1 V4M               -0.0311
     35 O5         -16.4233 134.1228  26.9243 O.3            1 V4M               -0.3358
     36 H262       -18.1548 136.1105  26.2398 H              1 V4M                0.0651
     37 C28        -19.7670 134.9056  25.4933 C.ar           1 V4M               -0.0596
     38 H272       -21.2236 133.4584  24.8195 H              1 V4M                0.0623
     39 H281       -20.3826 135.7631  25.2363 H              1 V4M                0.0624
     40 C29        -15.6575 135.3481  26.9310 C.3            1 V4M                0.1316
     41 H291       -15.4686 135.6650  25.8983 H              1 V4M                0.0675
     42 H292       -14.6866 135.1798  27.4123 H              1 V4M                0.0675
     43 C30        -16.3667 136.5092  27.6430 C.2            1 V4M                0.2576
     44 N4         -16.5596 136.2996  29.0002 N.am           1 V4M               -0.2052
     45 O6         -16.7867 137.4949  27.0584 O.2            1 V4M               -0.2732
     46 N5         -17.2513 137.1748  29.7861 N.2            1 V4M               -0.1876
     47 H42        -16.1789 135.4565  29.4111 H              1 V4M                0.1787
     48 C31        -17.2345 137.0003  31.0663 C.2            1 V4M                0.0731
     49 C14        -18.1792 137.6424  31.9752 C.ar           1 V4M                0.1104
     50 HC         -15.6661 132.1035  25.4689 H              1 V4M                0.0629
     51 N3         -19.4770 137.7836  31.6870 N.ar           1 V4M               -0.1789
     52 C15        -17.8734 138.1624  33.2836 C.ar           1 V4M                0.0265
     53 C17        -16.6850 138.2450  34.0218 C.ar           1 V4M               -0.0507
     54 C16        -19.0609 138.6229  33.7727 C.ar           1 V4M                0.0606
     55 N6         -20.0173 138.3885  32.8006 N.pl3          1 V4M               -0.2199
     56 C21        -21.4532 138.6918  32.8807 C.3            1 V4M                0.0596
     57 C18        -19.1688 139.2074  35.0412 C.ar           1 V4M               -0.0383
     58 H172       -15.7445 137.8755  33.6252 H              1 V4M                0.0631
     59 H181       -20.1190 139.5699  35.4197 H              1 V4M                0.0644
     60 C20        -17.9895 139.3078  35.8094 C.ar           1 V4M               -0.0603
     61 H201       -18.0281 139.7562  36.7981 H              1 V4M                0.0623
     62 C22        -22.2406 138.2077  31.6724 C.ar           1 V4M               -0.0286
     63 C32        -22.0915 136.8879  31.2079 C.ar           1 V4M               -0.0574
     64 C33        -23.1219 139.0802  31.0071 C.ar           1 V4M               -0.0574
     65 H321       -21.4101 136.2067  31.7095 H              1 V4M                0.0626
     66 C34        -22.8238 136.4422  30.0952 C.ar           1 V4M               -0.0619
     67 H331       -23.2404 140.1023  31.3568 H              1 V4M                0.0626
     68 C35        -23.8536 138.6351  29.8938 C.ar           1 V4M               -0.0619
     69 C36        -23.7065 137.3148  29.4391 C.ar           1 V4M               -0.0623
     70 H342       -22.7065 135.4224  29.7425 H              1 V4M                0.0623
     71 H352       -24.5333 139.3124  29.3859 H              1 V4M                0.0623
     72 H361       -24.2737 136.9697  28.5798 H              1 V4M                0.0623
     73 C19        -16.7572 138.8293  35.3038 C.ar           1 V4M               -0.0615
     74 H191       -15.8584 138.9125  35.9082 H              1 V4M                0.0623
     75 HC1        -16.5630 136.2781  31.5331 H              1 V4M                0.0881
     76 HC2        -21.8616 138.2205  33.7839 H              1 V4M                0.0542
     77 HC3        -21.5714 139.7768  32.9956 H              1 V4M                0.0542
@<TRIPOS>BOND
    1    1    2 ar    
    2    1    4 ar    
    3    2    3 ar    
    4    3    6 ar    
    5    4    5 ar    
    6    5    6 ar    
    7    5   11 1     
    8    6   10 1     
    9    7   10 1     
   10    7   11 am    
   11    7   12 1     
   12    8   15 am    
   13    8   16 am    
   14    9   11 2     
   15   12   13 1     
   16   12   16 1     
   17   13   14 1     
   18   14   15 1     
   19   15   18 2     
   20   16   17 2     
   21   19    1 1     
   22   20    3 1     
   23   21    4 1     
   24   22    8 1     
   25   23   10 1     
   26   24   10 1     
   27   25   12 1     
   28   26   13 1     
   29   27   13 1     
   30   28   14 1     
   31   29   14 1     
   32   30   20 ar    
   33   31   30 ar    
   34   32   30 1     
   35   33   20 ar    
   36   34   33 ar    
   37   35   33 1     
   38   36   34 1     
   39   37   31 ar    
   40   38   31 1     
   41   37   34 ar    
   42   39   37 1     
   43   40   35 1     
   44   41   40 1     
   45   42   40 1     
   46   43   40 1     
   47   44   43 am    
   48   45   43 2     
   49   46   44 1     
   50   47   44 1     
   51   48   46 2     
   52   49   48 1     
   53   50    2 1     
   54   51   49 ar    
   55   52   49 ar    
   56   53   52 ar    
   57   54   52 ar    
   58   55   51 ar    
   59   56   55 1     
   60   57   54 ar    
   61   55   54 ar    
   62   58   53 1     
   63   59   57 1     
   64   60   57 ar    
   65   61   60 1     
   66   62   56 1     
   67   63   62 ar    
   68   64   62 ar    
   69   65   63 1     
   70   66   63 ar    
   71   67   64 1     
   72   68   64 ar    
   73   69   66 ar    
   74   70   66 1     
   75   71   68 1     
   76   69   68 ar    
   77   72   69 1     
   78   73   53 ar    
   79   74   73 1     
   80   73   60 ar    
   81   75   48 1     
   82   76   56 1     
   83   77   56 1     
@<TRIPOS>SUBSTRUCTURE
      1 V4M            1
@<TRIPOS>SET
DONOR_HYDROGENS      STATIC     ATOMS    <user>   **** ""
2 22 47
ATOM$RED        STATIC     ATOMS    COLORGROUP SYSTEM
2 22 47
@<TRIPOS>COMMENT
> <Gold.Version>
5.8.1

> <Gold.Id.Protein>
gspt1+CRBNpiece.pdb|gspt1+CRBNpiece.pdb_protein|mol2

> <Gold.Protein.RotatedTorsions>
[  164  153  152  151 ] final -165.32 input  179.98 | X-H torsion
[ 3256 3246 3247 3248 ] final   17.30 input -117.12 | X-H torsion
[ 2677 2666 2665 2664 ] final   -9.56 input -179.99 | X-H torsion
[ 3012 3001 3000 2999 ] final -159.12 input  179.98 | X-H torsion
[ 3273 3268 3267 3264 ] final  -32.13 input -167.03 | X-H torsion
[ 3137 3122 3123 3129 ] final    1.75 input   37.32 | X-H torsion
[  145  146  149  150 ] final   58.95 input   81.59 |library1|rotamer2|chi1 (LYS)
[  146  149  150  151 ] final  170.09 input  -75.93 |library1|rotamer2|chi2 (LYS)
[  149  150  151  152 ] final  170.05 input -174.75 |library1|rotamer2|chi3 (LYS)
[  150  151  152  153 ] final   50.00 input -165.23 |library1|rotamer2|chi4 (LYS)

> <Gold.Protein.ActiveResidues>
 GLY     PRO     VAL     LYS     TYR     SER     ASN     HIS     ALA     PHE    
 TRP    

> <Gold.Protein.RotatedAtoms>
  -22.2669  151.1253   -7.6328 C.3 0  0  0  0  0  0  0  0  0  0  0  0  # atno 150  bound_to 149  158  159  151 
  -22.2209  152.6163   -7.3527 C.3 0  0  0  0  0  0  0  0  0  0  0  0  # atno 151  bound_to 150  160  161  152 
  -20.7914  153.1273   -7.2749 C.3 0  0  0  0  0  0  0  0  0  0  0  0  # atno 152  bound_to 151  162  163  153 
  -19.9901  152.6822   -8.4519 N.4 0  0  0  0  0  0  0  0  0  0  0  0  # atno 153  bound_to 152  164  165  166 
  -24.3623  151.1893   -8.0337 H   0  0  0  0  0  0  0  0  0  0  0  0  # atno 156  bound_to 149 
  -23.9451  150.5920   -6.4186 H   0  0  0  0  0  0  0  0  0  0  0  0  # atno 157  bound_to 149 
  -21.9302  150.9482   -8.6546 H   0  0  0  0  0  0  0  0  0  0  0  0  # atno 158  bound_to 150 
  -21.5962  150.6130   -6.9427 H   0  0  0  0  0  0  0  0  0  0  0  0  # atno 159  bound_to 150 
  -22.7192  152.8130   -6.4029 H   0  0  0  0  0  0  0  0  0  0  0  0  # atno 160  bound_to 151 
  -22.7461  153.1453   -8.1474 H   0  0  0  0  0  0  0  0  0  0  0  0  # atno 161  bound_to 151 
  -20.3274  152.7455   -6.3659 H   0  0  0  0  0  0  0  0  0  0  0  0  # atno 162  bound_to 152 
  -20.8026  154.2170   -7.2410 H   0  0  0  0  0  0  0  0  0  0  0  0  # atno 163  bound_to 152 
  -19.0077  152.8225   -8.2630 H   0  0  0  0  0  0  0  0  0  0  0  0  # atno 164  bound_to 153 
  -20.1632  151.7027   -8.6259 H   0  0  0  0  0  0  0  0  0  0  0  0  # atno 165  bound_to 153 
  -20.2575  153.2207   -9.2640 H   0  0  0  0  0  0  0  0  0  0  0  0  # atno 166  bound_to 153 
  -23.2632  142.7053   26.1286 H   0  0  0  0  0  0  0  0  0  0  0  0  # atno 2677 bound_to 2666
  -21.8567  141.8614   26.3031 H   0  0  0  0  0  0  0  0  0  0  0  0  # atno 2678 bound_to 2666
  -23.2993  141.1396   26.6463 H   0  0  0  0  0  0  0  0  0  0  0  0  # atno 2679 bound_to 2666
  -19.7219  136.6644   22.9103 H   0  0  0  0  0  0  0  0  0  0  0  0  # atno 3012 bound_to 3001
  -19.7501  135.3955   21.8577 H   0  0  0  0  0  0  0  0  0  0  0  0  # atno 3013 bound_to 3001
  -20.6310  136.7520   21.5361 H   0  0  0  0  0  0  0  0  0  0  0  0  # atno 3014 bound_to 3001
  -22.7405  121.5411   27.5125 H   0  0  0  0  0  0  0  0  0  0  0  0  # atno 3137 bound_to 3122
  -23.7289  121.5992   26.1943 H   0  0  0  0  0  0  0  0  0  0  0  0  # atno 3138 bound_to 3122
  -23.3945  122.9781   27.0344 H   0  0  0  0  0  0  0  0  0  0  0  0  # atno 3139 bound_to 3122
  -23.9186  133.3717   26.2398 H   0  0  0  0  0  0  0  0  0  0  0  0  # atno 3256 bound_to 3246
  -27.3097  130.9981   30.6446 H   0  0  0  0  0  0  0  0  0  0  0  0  # atno 3273 bound_to 3268

> <Gold.Score>
     Score     S(PLP)   S(hbond)     S(cho)   S(metal)  DE(clash)   DE(tors)    DE(con) S(protein)     intcor
    106.57    -104.30       2.04       0.00       0.00       0.00       1.84      -0.00       1.77       1.59

> <Gold.PLP.Fitness>
106.5672

> <Gold.PLP.PLP>
-104.3020

> <Gold.PLP.part.hbond>
-2.1840

> <Gold.PLP.part.metal>
0.0000

> <Gold.PLP.part.buried>
-3.8589

> <Gold.PLP.part.nonpolar>
-106.6130

> <Gold.PLP.part.repulsive>
6.0939

> <Gold.PLP.ligand.clash>
0.0000

> <Gold.PLP.ligand.torsion>
1.8438

> <Gold.PLP.Chemscore.Hbond>
2.0438

> <Gold.PLP.Chemscore.CHOScore>
0.0000

> <Gold.PLP.Chemscore.Metal>
0.0000

> <Gold.Chemscore.Hbonds>
donor molecule, donor type, donor heavy atom, donor atom, acceptor molecule, acceptor atom, score
      L1  H     8    22       P1  3249  0.80
      P1  H  3274  3288       L1    18  1.00
      P1  H  3147  3152       L1     9  0.24

> <Gold.PLP.Chemscore.Protein.Energy>
1.7669

> <Gold.PLP.Chemscore.Internal.Correction>
1.5884

> <Gold.PLP.Constraint>
-0.0000

