#       Name:                J18
#       Creating user name   jamesl
#       Creation time:       Thu Jul  7 08:43:20 2022


#       File generated by GOLD software.
#

@<TRIPOS>MOLECULE
J18|J18|mol2|1|dock2
    77    83     1
SMALL
AMBER


@<TRIPOS>ATOM
      1 C1         -15.1948 130.3108  26.4213 C.ar           1 V4M               -0.0608
      2 C2         -15.9707 131.4159  26.1299 C.ar           1 V4M               -0.0539
      3 C3         -17.2496 131.5421  26.6058 C.ar           1 V4M               -0.0102
      4 C4         -15.7465 129.3167  27.2331 C.ar           1 V4M               -0.0493
      5 C5         -17.0507 129.4655  27.7114 C.ar           1 V4M                0.0427
      6 C6         -17.7762 130.5574  27.3999 C.ar           1 V4M               -0.0101
      7 N1         -19.1173 129.1685  28.7792 N.am           1 V4M               -0.2814
      8 N2         -22.7780 128.8795  29.2074 N.am           1 V4M               -0.2541
      9 O1         -17.4454 127.5213  28.9985 O.2            1 V4M               -0.2717
     10 C7         -19.1920 130.4915  28.0511 C.3            1 V4M                0.0417
     11 C8         -17.8202 128.5581  28.5643 C.2            1 V4M                0.2468
     12 C9         -20.2590 128.6969  29.5363 C.3            1 V4M                0.1037
     13 C10        -20.5183 129.6002  30.7537 C.3            1 V4M               -0.0169
     14 C11        -21.6966 128.9885  31.5457 C.3            1 V4M                0.0270
     15 C12        -22.9227 129.0307  30.6256 C.2            1 V4M                0.2182
     16 C13        -21.4839 128.6688  28.6388 C.2            1 V4M                0.2388
     17 O2         -21.3751 128.4513  27.4796 O.2            1 V4M               -0.2751
     18 O3         -23.9997 129.2002  31.0881 O.2            1 V4M               -0.2773
     19 H1         -14.1913 130.2181  26.0330 H              1 V4M                0.0623
     20 C23        -18.0279 132.7818  26.2854 C.ar           1 V4M                0.0123
     21 H4         -15.1696 128.4403  27.4888 H              1 V4M                0.0631
     22 H2         -23.5911 128.9219  28.6097 H              1 V4M                0.1586
     23 H72        -19.3530 131.3192  28.7417 H              1 V4M                0.0521
     24 H73        -19.9687 130.4690  27.2867 H              1 V4M                0.0521
     25 H9         -20.0556 127.6848  29.8861 H              1 V4M                0.0608
     26 H102       -19.6289 129.6408  31.3826 H              1 V4M                0.0296
     27 H103       -20.7800 130.6041  30.4194 H              1 V4M                0.0296
     28 H112       -21.8847 129.5715  32.4473 H              1 V4M                0.0366
     29 H113       -21.4683 127.9565  31.8123 H              1 V4M                0.0366
     30 C24        -19.3730 132.6824  25.8526 C.ar           1 V4M               -0.0517
     31 C27        -20.1399 133.8280  25.5909 C.ar           1 V4M               -0.0615
     32 H242       -19.8320 131.7048  25.7405 H              1 V4M                0.0630
     33 C25        -17.4741 134.0797  26.4542 C.ar           1 V4M                0.0834
     34 C26        -18.2529 135.2295  26.2049 C.ar           1 V4M               -0.0311
     35 O5         -16.1487 134.1523  26.8483 O.3            1 V4M               -0.3358
     36 H262       -17.8412 136.2240  26.3375 H              1 V4M                0.0651
     37 C28        -19.5808 135.1012  25.7706 C.ar           1 V4M               -0.0596
     38 H272       -21.1703 133.7284  25.2611 H              1 V4M                0.0623
     39 H281       -20.1765 135.9883  25.5746 H              1 V4M                0.0624
     40 C29        -15.4714 135.3634  27.2509 C.3            1 V4M                0.1316
     41 H291       -15.5031 136.0887  26.4290 H              1 V4M                0.0675
     42 H292       -14.4181 135.1487  27.4674 H              1 V4M                0.0675
     43 C30        -16.1004 136.0370  28.4793 C.2            1 V4M                0.2576
     44 N4         -15.4363 135.7682  29.6667 N.am           1 V4M               -0.2052
     45 O6         -17.1304 136.6901  28.4292 O.2            1 V4M               -0.2732
     46 N5         -15.8944 136.2009  30.8771 N.2            1 V4M               -0.1876
     47 H42        -14.5868 135.2195  29.6240 H              1 V4M                0.1787
     48 C31        -15.0741 136.2226  31.8752 C.2            1 V4M                0.0731
     49 C14        -15.5058 136.3380  33.2649 C.ar           1 V4M                0.1104
     50 HC         -15.5592 132.2000  25.5116 H              1 V4M                0.0629
     51 N3         -16.7933 136.4046  33.6185 N.ar           1 V4M               -0.1789
     52 C15        -14.6437 136.3555  34.4192 C.ar           1 V4M                0.0265
     53 C17        -13.2511 136.3074  34.5688 C.ar           1 V4M               -0.0507
     54 C16        -15.4831 136.4325  35.4920 C.ar           1 V4M                0.0606
     55 N6         -16.7740 136.4616  34.9948 N.pl3          1 V4M               -0.2199
     56 C21        -18.0205 136.5179  35.7717 C.3            1 V4M                0.0596
     57 C18        -15.0083 136.4693  36.8095 C.ar           1 V4M               -0.0383
     58 H172       -12.5905 136.2455  33.7096 H              1 V4M                0.0631
     59 H181       -15.6858 136.5304  37.6550 H              1 V4M                0.0644
     60 C20        -13.6102 136.4249  36.9945 C.ar           1 V4M               -0.0603
     61 H201       -13.1994 136.4530  37.9997 H              1 V4M                0.0623
     62 C22        -18.2362 135.2988  36.6557 C.ar           1 V4M               -0.0286
     63 C32        -18.1980 134.0045  36.1050 C.ar           1 V4M               -0.0574
     64 C33        -18.4805 135.4583  38.0325 C.ar           1 V4M               -0.0574
     65 H321       -18.0161 133.8688  35.0427 H              1 V4M                0.0626
     66 C34        -18.3924 132.8806  36.9246 C.ar           1 V4M               -0.0619
     67 H331       -18.5153 136.4544  38.4655 H              1 V4M                0.0626
     68 C35        -18.6758 134.3346  38.8522 C.ar           1 V4M               -0.0619
     69 C36        -18.6292 133.0450  38.2987 C.ar           1 V4M               -0.0623
     70 H342       -18.3597 131.8844  36.4949 H              1 V4M                0.0623
     71 H352       -18.8620 134.4640  39.9140 H              1 V4M                0.0623
     72 H361       -18.7780 132.1759  38.9326 H              1 V4M                0.0623
     73 C19        -12.7384 136.3436  35.8825 C.ar           1 V4M               -0.0615
     74 H191       -11.6643 136.3086  36.0418 H              1 V4M                0.0623
     75 HC1        -14.0047 136.0572  31.7362 H              1 V4M                0.0881
     76 HC2        -18.0006 137.4160  36.4024 H              1 V4M                0.0542
     77 HC3        -18.8590 136.6275  35.0722 H              1 V4M                0.0542
@<TRIPOS>BOND
    1    1    2 ar    
    2    1    4 ar    
    3    2    3 ar    
    4    3    6 ar    
    5    4    5 ar    
    6    5    6 ar    
    7    5   11 1     
    8    6   10 1     
    9    7   10 1     
   10    7   11 am    
   11    7   12 1     
   12    8   15 am    
   13    8   16 am    
   14    9   11 2     
   15   12   13 1     
   16   12   16 1     
   17   13   14 1     
   18   14   15 1     
   19   15   18 2     
   20   16   17 2     
   21   19    1 1     
   22   20    3 1     
   23   21    4 1     
   24   22    8 1     
   25   23   10 1     
   26   24   10 1     
   27   25   12 1     
   28   26   13 1     
   29   27   13 1     
   30   28   14 1     
   31   29   14 1     
   32   30   20 ar    
   33   31   30 ar    
   34   32   30 1     
   35   33   20 ar    
   36   34   33 ar    
   37   35   33 1     
   38   36   34 1     
   39   37   31 ar    
   40   38   31 1     
   41   37   34 ar    
   42   39   37 1     
   43   40   35 1     
   44   41   40 1     
   45   42   40 1     
   46   43   40 1     
   47   44   43 am    
   48   45   43 2     
   49   46   44 1     
   50   47   44 1     
   51   48   46 2     
   52   49   48 1     
   53   50    2 1     
   54   51   49 ar    
   55   52   49 ar    
   56   53   52 ar    
   57   54   52 ar    
   58   55   51 ar    
   59   56   55 1     
   60   57   54 ar    
   61   55   54 ar    
   62   58   53 1     
   63   59   57 1     
   64   60   57 ar    
   65   61   60 1     
   66   62   56 1     
   67   63   62 ar    
   68   64   62 ar    
   69   65   63 1     
   70   66   63 ar    
   71   67   64 1     
   72   68   64 ar    
   73   69   66 ar    
   74   70   66 1     
   75   71   68 1     
   76   69   68 ar    
   77   72   69 1     
   78   73   53 ar    
   79   74   73 1     
   80   73   60 ar    
   81   75   48 1     
   82   76   56 1     
   83   77   56 1     
@<TRIPOS>SUBSTRUCTURE
      1 V4M            1
@<TRIPOS>SET
DONOR_HYDROGENS      STATIC     ATOMS    <user>   **** ""
2 22 47
ATOM$RED        STATIC     ATOMS    COLORGROUP SYSTEM
2 22 47
@<TRIPOS>COMMENT
> <Gold.Version>
5.8.1

> <Gold.Id.Protein>
gspt1+CRBNpiece.pdb|gspt1+CRBNpiece.pdb_protein|mol2

> <Gold.Protein.RotatedTorsions>
[  164  153  152  151 ] final -146.39 input  179.98 | X-H torsion
[ 3256 3246 3247 3248 ] final  131.69 input -117.12 | X-H torsion
[ 2677 2666 2665 2664 ] final   12.59 input -179.99 | X-H torsion
[ 3012 3001 3000 2999 ] final   84.13 input  179.98 | X-H torsion
[ 3273 3268 3267 3264 ] final   45.26 input -167.03 | X-H torsion
[ 3137 3122 3123 3129 ] final -171.71 input   37.32 | X-H torsion
[  145  146  149  150 ] final   61.47 input   81.59 |library1|rotamer2|chi1 (LYS)
[  146  149  150  151 ] final  171.66 input  -75.93 |library1|rotamer2|chi2 (LYS)
[  149  150  151  152 ] final  176.39 input -174.75 |library1|rotamer2|chi3 (LYS)
[  150  151  152  153 ] final   53.33 input -165.23 |library1|rotamer2|chi4 (LYS)

> <Gold.Protein.ActiveResidues>
 GLY     PRO     VAL     LYS     TYR     SER     ASN     HIS     ALA     PHE    
 TRP    

> <Gold.Protein.RotatedAtoms>
  -22.2830  151.1463   -7.6882 C.3 0  0  0  0  0  0  0  0  0  0  0  0  # atno 150  bound_to 149  158  159  151 
  -22.2379  152.6289   -7.3670 C.3 0  0  0  0  0  0  0  0  0  0  0  0  # atno 151  bound_to 150  160  161  152 
  -20.8304  153.1876   -7.4995 C.3 0  0  0  0  0  0  0  0  0  0  0  0  # atno 152  bound_to 151  162  163  153 
  -20.2447  152.8746   -8.8353 N.4 0  0  0  0  0  0  0  0  0  0  0  0  # atno 153  bound_to 152  164  165  166 
  -24.3939  151.1813   -8.0019 H   0  0  0  0  0  0  0  0  0  0  0  0  # atno 156  bound_to 149 
  -23.9017  150.5839   -6.4081 H   0  0  0  0  0  0  0  0  0  0  0  0  # atno 157  bound_to 149 
  -21.9980  151.0028   -8.7309 H   0  0  0  0  0  0  0  0  0  0  0  0  # atno 158  bound_to 150 
  -21.5721  150.6220   -7.0492 H   0  0  0  0  0  0  0  0  0  0  0  0  # atno 159  bound_to 150 
  -22.5835  152.7795   -6.3438 H   0  0  0  0  0  0  0  0  0  0  0  0  # atno 160  bound_to 151 
  -22.8991  153.1624   -8.0490 H   0  0  0  0  0  0  0  0  0  0  0  0  # atno 161  bound_to 151 
  -20.2008  152.7499   -6.7253 H   0  0  0  0  0  0  0  0  0  0  0  0  # atno 162  bound_to 152 
  -20.8612  154.2695   -7.3669 H   0  0  0  0  0  0  0  0  0  0  0  0  # atno 163  bound_to 152 
  -19.2489  152.7321   -8.7414 H   0  0  0  0  0  0  0  0  0  0  0  0  # atno 164  bound_to 153 
  -20.6718  152.0362   -9.2019 H   0  0  0  0  0  0  0  0  0  0  0  0  # atno 165  bound_to 153 
  -20.4170  153.6440   -9.4670 H   0  0  0  0  0  0  0  0  0  0  0  0  # atno 166  bound_to 153 
  -23.5436  142.4889   26.2204 H   0  0  0  0  0  0  0  0  0  0  0  0  # atno 2677 bound_to 2666
  -21.9189  142.2053   26.1943 H   0  0  0  0  0  0  0  0  0  0  0  0  # atno 2678 bound_to 2666
  -22.9566  141.0124   26.6632 H   0  0  0  0  0  0  0  0  0  0  0  0  # atno 2679 bound_to 2666
  -19.7212  135.3936   21.9026 H   0  0  0  0  0  0  0  0  0  0  0  0  # atno 3012 bound_to 3001
  -20.6310  136.7095   21.5034 H   0  0  0  0  0  0  0  0  0  0  0  0  # atno 3013 bound_to 3001
  -19.7509  136.7092   22.8980 H   0  0  0  0  0  0  0  0  0  0  0  0  # atno 3014 bound_to 3001
  -23.8541  122.4436   26.2642 H   0  0  0  0  0  0  0  0  0  0  0  0  # atno 3137 bound_to 3122
  -22.8919  122.5713   27.5967 H   0  0  0  0  0  0  0  0  0  0  0  0  # atno 3138 bound_to 3122
  -23.1172  121.1029   26.8811 H   0  0  0  0  0  0  0  0  0  0  0  0  # atno 3139 bound_to 3122
  -23.1216  133.3239   24.9815 H   0  0  0  0  0  0  0  0  0  0  0  0  # atno 3256 bound_to 3246
  -26.3970  131.4718   31.1165 H   0  0  0  0  0  0  0  0  0  0  0  0  # atno 3273 bound_to 3268

> <Gold.Score>
     Score     S(PLP)   S(hbond)     S(cho)   S(metal)  DE(clash)   DE(tors)    DE(con) S(protein)     intcor
    114.81    -111.06       2.49       0.00       0.00       0.00       1.33      -0.00       3.10       2.04

> <Gold.PLP.Fitness>
114.8074

> <Gold.PLP.PLP>
-111.0562

> <Gold.PLP.part.hbond>
-3.3572

> <Gold.PLP.part.metal>
0.0000

> <Gold.PLP.part.buried>
-3.6417

> <Gold.PLP.part.nonpolar>
-113.0077

> <Gold.PLP.part.repulsive>
6.1199

> <Gold.PLP.ligand.clash>
0.0000

> <Gold.PLP.ligand.torsion>
1.3287

> <Gold.PLP.Chemscore.Hbond>
2.4895

> <Gold.PLP.Chemscore.CHOScore>
0.0000

> <Gold.PLP.Chemscore.Metal>
0.0000

> <Gold.Chemscore.Hbonds>
donor molecule, donor type, donor heavy atom, donor atom, acceptor molecule, acceptor atom, score
      L1  H     8    22       P1  3249  0.83
      P1  H  3274  3288       L1    18  0.99
      P1  H  3147  3152       L1     9  0.67

> <Gold.PLP.Chemscore.Protein.Energy>
3.0974

> <Gold.PLP.Chemscore.Internal.Correction>
2.0375

> <Gold.PLP.Constraint>
-0.0000

