#       Name:                J18
#       Creating user name   jamesl
#       Creation time:       Thu Jul  7 08:43:15 2022


#       File generated by GOLD software.
#

@<TRIPOS>MOLECULE
J18|J18|mol2|1|dock1
    77    83     1
SMALL
AMBER


@<TRIPOS>ATOM
      1 C1         -15.2963 130.2685  26.4775 C.ar           1 V4M               -0.0608
      2 C2         -16.0850 131.3463  26.1248 C.ar           1 V4M               -0.0539
      3 C3         -17.3731 131.4724  26.5750 C.ar           1 V4M               -0.0102
      4 C4         -15.8450 129.3027  27.3248 C.ar           1 V4M               -0.0493
      5 C5         -17.1588 129.4510  27.7759 C.ar           1 V4M                0.0427
      6 C6         -17.8967 130.5156  27.4045 C.ar           1 V4M               -0.0101
      7 N1         -19.2372 129.1677  28.8243 N.am           1 V4M               -0.2814
      8 N2         -22.8997 128.9703  29.2883 N.am           1 V4M               -0.2541
      9 O1         -17.5430 127.5601  29.1431 O.2            1 V4M               -0.2717
     10 C7         -19.3214 130.4553  28.0362 C.3            1 V4M                0.0417
     11 C8         -17.9274 128.5700  28.6569 C.2            1 V4M                0.2468
     12 C9         -20.3833 128.7115  29.5843 C.3            1 V4M                0.1037
     13 C10        -20.6041 129.5953  30.8234 C.3            1 V4M               -0.0169
     14 C11        -21.7903 128.9994  31.6158 C.3            1 V4M                0.0270
     15 C12        -23.0247 129.0949  30.7109 C.2            1 V4M                0.2182
     16 C13        -21.6182 128.7364  28.7005 C.2            1 V4M                0.2388
     17 O2         -21.5281 128.5409  27.5358 O.2            1 V4M               -0.2751
     18 O3         -24.0914 129.2840  31.1893 O.2            1 V4M               -0.2773
     19 H1         -14.2853 130.1752  26.1092 H              1 V4M                0.0623
     20 C23        -18.1659 132.6833  26.1871 C.ar           1 V4M                0.0123
     21 H4         -15.2582 128.4484  27.6285 H              1 V4M                0.0631
     22 H2         -23.7177 129.0479  28.7010 H              1 V4M                0.1586
     23 H72        -19.5067 131.3104  28.6863 H              1 V4M                0.0521
     24 H73        -20.0853 130.3856  27.2618 H              1 V4M                0.0521
     25 H9         -20.2042 127.6870  29.9102 H              1 V4M                0.0608
     26 H102       -19.7072 129.5980  31.4428 H              1 V4M                0.0296
     27 H103       -20.8416 130.6129  30.5134 H              1 V4M                0.0296
     28 H112       -21.9523 129.5679  32.5316 H              1 V4M                0.0366
     29 H113       -21.5878 127.9560  31.8579 H              1 V4M                0.0366
     30 C24        -19.4473 132.5344  25.6020 C.ar           1 V4M               -0.0517
     31 C27        -20.2311 133.6505  25.2724 C.ar           1 V4M               -0.0615
     32 H242       -19.8455 131.5401  25.4230 H              1 V4M                0.0630
     33 C25        -17.6947 134.0004  26.4383 C.ar           1 V4M                0.0834
     34 C26        -18.4919 135.1200  26.1197 C.ar           1 V4M               -0.0311
     35 O5         -16.4273 134.1225  26.9823 O.3            1 V4M               -0.3358
     36 H262       -18.1438 136.1285  26.3140 H              1 V4M                0.0651
     37 C28        -19.7548 134.9429  25.5346 C.ar           1 V4M               -0.0596
     38 H272       -21.2118 133.5130  24.8255 H              1 V4M                0.0623
     39 H281       -20.3643 135.8071  25.2857 H              1 V4M                0.0624
     40 C29        -15.6955 135.3626  27.1024 C.3            1 V4M                0.1316
     41 H291       -15.7240 135.8964  26.1450 H              1 V4M                0.0675
     42 H292       -14.6450 135.1556  27.3392 H              1 V4M                0.0675
     43 C30        -16.2650 136.3082  28.1700 C.2            1 V4M                0.2576
     44 N4         -15.9151 135.9639  29.4670 N.am           1 V4M               -0.2052
     45 O6         -17.0149 137.2355  27.9099 O.2            1 V4M               -0.2732
     46 N5         -16.3978 136.6276  30.5573 N.2            1 V4M               -0.1876
     47 H42        -15.2866 135.1816  29.5994 H              1 V4M                0.1787
     48 C31        -16.0872 136.1906  31.7329 C.2            1 V4M                0.0731
     49 C14        -16.7899 136.5908  32.9482 C.ar           1 V4M                0.1104
     50 HC         -15.6761 132.1087  25.4782 H              1 V4M                0.0629
     51 N3         -16.3732 136.2459  34.1707 N.ar           1 V4M               -0.1789
     52 C15        -17.9675 137.4186  33.0101 C.ar           1 V4M                0.0265
     53 C17        -18.7620 138.0199  32.0246 C.ar           1 V4M               -0.0507
     54 C16        -18.2377 137.5583  34.3401 C.ar           1 V4M                0.0606
     55 N6         -17.2699 136.8467  35.0268 N.pl3          1 V4M               -0.2199
     56 C21        -17.1311 136.7216  36.4847 C.3            1 V4M                0.0596
     57 C18        -19.3248 138.3094  34.8056 C.ar           1 V4M               -0.0383
     58 H172       -18.5394 137.9040  30.9684 H              1 V4M                0.0631
     59 H181       -19.5295 138.4135  35.8662 H              1 V4M                0.0644
     60 C20        -20.1462 138.9261  33.8382 C.ar           1 V4M               -0.0603
     61 H201       -21.0011 139.5162  34.1558 H              1 V4M                0.0623
     62 C22        -17.5023 135.3430  37.0101 C.ar           1 V4M               -0.0286
     63 C32        -17.3859 135.0488  38.3812 C.ar           1 V4M               -0.0574
     64 C33        -17.9613 134.3494  36.1256 C.ar           1 V4M               -0.0574
     65 H321       -17.0273 135.8057  39.0730 H              1 V4M                0.0626
     66 C34        -17.7343 133.7768  38.8642 C.ar           1 V4M               -0.0619
     67 H331       -18.0509 134.5668  35.0646 H              1 V4M                0.0626
     68 C35        -18.3090 133.0770  36.6082 C.ar           1 V4M               -0.0619
     69 C36        -18.1980 132.7911  37.9784 C.ar           1 V4M               -0.0623
     70 H342       -17.6446 133.5560  39.9232 H              1 V4M                0.0623
     71 H352       -18.6643 132.3151  35.9210 H              1 V4M                0.0623
     72 H361       -18.4687 131.8082  38.3521 H              1 V4M                0.0623
     73 C19        -19.8663 138.7831  32.4582 C.ar           1 V4M               -0.0615
     74 H191       -20.5075 139.2655  31.7259 H              1 V4M                0.0623
     75 HC1        -15.3331 135.4143  31.8701 H              1 V4M                0.0881
     76 HC2        -16.0905 136.9384  36.7580 H              1 V4M                0.0542
     77 HC3        -17.7602 137.4859  36.9586 H              1 V4M                0.0542
@<TRIPOS>BOND
    1    1    2 ar    
    2    1    4 ar    
    3    2    3 ar    
    4    3    6 ar    
    5    4    5 ar    
    6    5    6 ar    
    7    5   11 1     
    8    6   10 1     
    9    7   10 1     
   10    7   11 am    
   11    7   12 1     
   12    8   15 am    
   13    8   16 am    
   14    9   11 2     
   15   12   13 1     
   16   12   16 1     
   17   13   14 1     
   18   14   15 1     
   19   15   18 2     
   20   16   17 2     
   21   19    1 1     
   22   20    3 1     
   23   21    4 1     
   24   22    8 1     
   25   23   10 1     
   26   24   10 1     
   27   25   12 1     
   28   26   13 1     
   29   27   13 1     
   30   28   14 1     
   31   29   14 1     
   32   30   20 ar    
   33   31   30 ar    
   34   32   30 1     
   35   33   20 ar    
   36   34   33 ar    
   37   35   33 1     
   38   36   34 1     
   39   37   31 ar    
   40   38   31 1     
   41   37   34 ar    
   42   39   37 1     
   43   40   35 1     
   44   41   40 1     
   45   42   40 1     
   46   43   40 1     
   47   44   43 am    
   48   45   43 2     
   49   46   44 1     
   50   47   44 1     
   51   48   46 2     
   52   49   48 1     
   53   50    2 1     
   54   51   49 ar    
   55   52   49 ar    
   56   53   52 ar    
   57   54   52 ar    
   58   55   51 ar    
   59   56   55 1     
   60   57   54 ar    
   61   55   54 ar    
   62   58   53 1     
   63   59   57 1     
   64   60   57 ar    
   65   61   60 1     
   66   62   56 1     
   67   63   62 ar    
   68   64   62 ar    
   69   65   63 1     
   70   66   63 ar    
   71   67   64 1     
   72   68   64 ar    
   73   69   66 ar    
   74   70   66 1     
   75   71   68 1     
   76   69   68 ar    
   77   72   69 1     
   78   73   53 ar    
   79   74   73 1     
   80   73   60 ar    
   81   75   48 1     
   82   76   56 1     
   83   77   56 1     
@<TRIPOS>SUBSTRUCTURE
      1 V4M            1
@<TRIPOS>SET
DONOR_HYDROGENS      STATIC     ATOMS    <user>   **** ""
2 22 47
ATOM$RED        STATIC     ATOMS    COLORGROUP SYSTEM
2 22 47
@<TRIPOS>COMMENT
> <Gold.Version>
5.8.1

> <Gold.Id.Protein>
gspt1+CRBNpiece.pdb|gspt1+CRBNpiece.pdb_protein|mol2

> <Gold.Protein.RotatedTorsions>
[  164  153  152  151 ] final  -36.93 input  179.98 | X-H torsion
[ 3256 3246 3247 3248 ] final  156.60 input -117.12 | X-H torsion
[ 2677 2666 2665 2664 ] final -109.91 input -179.99 | X-H torsion
[ 3012 3001 3000 2999 ] final  164.90 input  179.98 | X-H torsion
[ 3273 3268 3267 3264 ] final  156.67 input -167.03 | X-H torsion
[ 3137 3122 3123 3129 ] final  -91.98 input   37.32 | X-H torsion
[  145  146  149  150 ] final  -65.10 input   81.59 |library1|rotamer18|chi1 (LYS)
[  146  149  150  151 ] final -168.94 input  -75.93 |library1|rotamer18|chi2 (LYS)
[  149  150  151  152 ] final   52.81 input -174.75 |library1|rotamer18|chi3 (LYS)
[  150  151  152  153 ] final  170.91 input -165.23 |library1|rotamer18|chi4 (LYS)

> <Gold.Protein.ActiveResidues>
 GLY     PRO     VAL     LYS     TYR     SER     ASN     HIS     ALA     PHE    
 TRP    

> <Gold.Protein.RotatedAtoms>
  -24.0903  150.7474   -6.0204 C.3 0  0  0  0  0  0  0  0  0  0  0  0  # atno 150  bound_to 149  158  159  151 
  -24.1893  152.2144   -5.6442 C.3 0  0  0  0  0  0  0  0  0  0  0  0  # atno 151  bound_to 150  160  161  152 
  -25.0769  152.9814   -6.6109 C.3 0  0  0  0  0  0  0  0  0  0  0  0  # atno 152  bound_to 151  162  163  153 
  -25.3480  154.3638   -6.1200 N.4 0  0  0  0  0  0  0  0  0  0  0  0  # atno 153  bound_to 152  164  165  166 
  -22.6271  150.8535   -7.5706 H   0  0  0  0  0  0  0  0  0  0  0  0  # atno 156  bound_to 149 
  -24.2798  151.2109   -8.0999 H   0  0  0  0  0  0  0  0  0  0  0  0  # atno 157  bound_to 149 
  -23.3525  150.2676   -5.3767 H   0  0  0  0  0  0  0  0  0  0  0  0  # atno 158  bound_to 150 
  -25.0601  150.2741   -5.8651 H   0  0  0  0  0  0  0  0  0  0  0  0  # atno 159  bound_to 150 
  -23.1902  152.6511   -5.6586 H   0  0  0  0  0  0  0  0  0  0  0  0  # atno 160  bound_to 151 
  -24.6008  152.2983   -4.6388 H   0  0  0  0  0  0  0  0  0  0  0  0  # atno 161  bound_to 151 
  -26.0233  152.4522   -6.7194 H   0  0  0  0  0  0  0  0  0  0  0  0  # atno 162  bound_to 152 
  -24.5840  153.0366   -7.5819 H   0  0  0  0  0  0  0  0  0  0  0  0  # atno 163  bound_to 152 
  -25.4501  154.3504   -5.1150 H   0  0  0  0  0  0  0  0  0  0  0  0  # atno 164  bound_to 153 
  -24.5788  154.9674   -6.3724 H   0  0  0  0  0  0  0  0  0  0  0  0  # atno 165  bound_to 153 
  -26.1991  154.7094   -6.5408 H   0  0  0  0  0  0  0  0  0  0  0  0  # atno 166  bound_to 153 
  -21.9053  142.1680   26.2066 H   0  0  0  0  0  0  0  0  0  0  0  0  # atno 2677 bound_to 2666
  -22.9981  141.0202   26.6637 H   0  0  0  0  0  0  0  0  0  0  0  0  # atno 2678 bound_to 2666
  -23.5172  142.5178   26.2080 H   0  0  0  0  0  0  0  0  0  0  0  0  # atno 2679 bound_to 2666
  -19.4827  136.1289   22.8646 H   0  0  0  0  0  0  0  0  0  0  0  0  # atno 3012 bound_to 3001
  -20.1127  135.5920   21.4385 H   0  0  0  0  0  0  0  0  0  0  0  0  # atno 3013 bound_to 3001
  -20.5076  137.0911   22.0009 H   0  0  0  0  0  0  0  0  0  0  0  0  # atno 3014 bound_to 3001
  -23.5170  121.2776   26.3910 H   0  0  0  0  0  0  0  0  0  0  0  0  # atno 3137 bound_to 3122
  -23.6354  122.8955   26.6850 H   0  0  0  0  0  0  0  0  0  0  0  0  # atno 3138 bound_to 3122
  -22.7111  121.9455   27.6659 H   0  0  0  0  0  0  0  0  0  0  0  0  # atno 3139 bound_to 3122
  -23.3514  133.3523   24.6774 H   0  0  0  0  0  0  0  0  0  0  0  0  # atno 3256 bound_to 3246
  -27.2242  132.7147   31.1936 H   0  0  0  0  0  0  0  0  0  0  0  0  # atno 3273 bound_to 3268

> <Gold.Score>
     Score     S(PLP)   S(hbond)     S(cho)   S(metal)  DE(clash)   DE(tors)    DE(con) S(protein)     intcor
    109.90    -108.51       2.04       0.00       0.00       0.00       1.78      -0.00       3.50       2.31

> <Gold.PLP.Fitness>
109.8989

> <Gold.PLP.PLP>
-108.5144

> <Gold.PLP.part.hbond>
-3.2079

> <Gold.PLP.part.metal>
0.0000

> <Gold.PLP.part.buried>
-5.8979

> <Gold.PLP.part.nonpolar>
-107.9644

> <Gold.PLP.part.repulsive>
6.0697

> <Gold.PLP.ligand.clash>
0.0000

> <Gold.PLP.ligand.torsion>
1.7823

> <Gold.PLP.Chemscore.Hbond>
2.0438

> <Gold.PLP.Chemscore.CHOScore>
0.0000

> <Gold.PLP.Chemscore.Metal>
0.0000

> <Gold.Chemscore.Hbonds>
donor molecule, donor type, donor heavy atom, donor atom, acceptor molecule, acceptor atom, score
      L1  H     8    22       P1  3249  0.80
      P1  H  3274  3288       L1    18  1.00
      P1  H  3147  3152       L1     9  0.24

> <Gold.PLP.Chemscore.Protein.Energy>
3.4961

> <Gold.PLP.Chemscore.Internal.Correction>
2.3140

> <Gold.PLP.Constraint>
-0.0000

