@<TRIPOS>MOLECULE
gspt1+CRBNpiece.pdb
  3459  3493    20     0     1
SMALL
NO_CHARGES
****
Generated from the CSD

@<TRIPOS>ATOM
     1 N      -39.2440 148.1780  11.7270   N.2       1 GLY    0.0000
     2 CA     -38.0550 148.4100  12.5250   C.3       1 GLY    0.0000
     3 C      -36.9210 149.0460  11.7450   C.2       1 GLY    0.0000
     4 O      -37.1540 149.6980  10.7260   O.2       1 GLY    0.0000
     5 HA2    -37.7100 147.4530  12.9170   H         1 GLY    0.0000
     6 HA3    -38.3140 149.0600  13.3610   H         1 GLY    0.0000
     7 H      -39.4290 147.2580  11.3530   H         1 GLY    0.0000
     8 N      -35.6920 148.8650  12.2200   N.am      2 PRO    0.0000
     9 CA     -34.5350 149.4100  11.5070   C.3       2 PRO    0.0000
    10 C      -34.1630 148.5650  10.2990   C.2       2 PRO    0.0000
    11 O      -34.3520 147.3470  10.2760   O.2       2 PRO    0.0000
    12 CB     -33.4290 149.3770  12.5660   C.3       2 PRO    0.0000
    13 CG     -33.7830 148.1990  13.4170   C.3       2 PRO    0.0000
    14 CD     -35.2940 148.0870  13.4080   C.3       2 PRO    0.0000
    15 HA     -34.7320 150.4370  11.2010   H         2 PRO    0.0000
    16 HB2    -32.4520 149.2410  12.1020   H         2 PRO    0.0000
    17 HB3    -33.4440 150.2920  13.1590   H         2 PRO    0.0000
    18 HG2    -33.4250 148.3510  14.4350   H         2 PRO    0.0000
    19 HG3    -33.3410 147.2940  13.0000   H         2 PRO    0.0000
    20 HD2    -35.7210 148.5150  14.3150   H         2 PRO    0.0000
    21 HD3    -35.5970 147.0460  13.3000   H         2 PRO    0.0000
    22 N      -33.6260 149.2350   9.2810   N.am      3 ILE    0.0000
    23 CA     -33.2900 148.5950   8.0160   C.3       3 ILE    0.0000
    24 C      -31.7880 148.6990   7.7890   C.2       3 ILE    0.0000
    25 O      -31.1800 149.7430   8.0500   O.2       3 ILE    0.0000
    26 CB     -34.0800 149.2070   6.8360   C.3       3 ILE    0.0000
    27 CG1    -33.6810 150.6640   6.5890   C.3       3 ILE    0.0000
    28 CG2    -35.5730 149.1110   7.0930   C.3       3 ILE    0.0000
    29 CD1    -32.7350 150.8520   5.4170   C.3       3 ILE    0.0000
    30 H      -33.4450 150.2230   9.3900   H         3 ILE    0.0000
    31 HA     -33.5510 147.5390   8.0890   H         3 ILE    0.0000
    32 HB     -33.8510 148.6330   5.9380   H         3 ILE    0.0000
    33 HG12   -34.5860 151.2400   6.3950   H         3 ILE    0.0000
    34 HG13   -33.2050 151.0540   7.4890   H         3 ILE    0.0000
    35 HG21   -35.8460 148.0700   7.2670   H         3 ILE    0.0000
    36 HG22   -35.8290 149.7060   7.9700   H         3 ILE    0.0000
    37 HG23   -36.1160 149.4890   6.2270   H         3 ILE    0.0000
    38 HD11   -32.4990 151.9100   5.3060   H         3 ILE    0.0000
    39 HD12   -31.8170 150.2920   5.5980   H         3 ILE    0.0000
    40 HD13   -33.2090 150.4880   4.5050   H         3 ILE    0.0000
    41 N      -31.2000 147.6140   7.2840   N.am      4 ARG    0.0000
    42 CA     -29.7730 147.5220   6.9930   C.3       4 ARG    0.0000
    43 C      -29.6010 146.7140   5.7160   C.2       4 ARG    0.0000
    44 O      -30.1290 145.6030   5.6110   O.2       4 ARG    0.0000
    45 CB     -29.0030 146.8530   8.1420   C.3       4 ARG    0.0000
    46 CG     -28.0200 147.7520   8.8890   C.3       4 ARG    0.0000
    47 CD     -28.7110 148.9590   9.4790   C.3       4 ARG    0.0000
    48 NE     -28.0280 149.5000  10.6470   N.pl3     4 ARG    0.0000
    49 CZ     -28.5030 150.5010  11.3800   C.cat     4 ARG    0.0000
    50 NH1    -29.6570 151.0700  11.0590   N.pl3     4 ARG    0.0000
    51 NH2    -27.8240 150.9340  12.4340   N.pl3     4 ARG    0.0000
    52 H      -31.7770 146.8080   7.0910   H         4 ARG    0.0000
    53 HA     -29.3770 148.5250   6.8360   H         4 ARG    0.0000
    54 HB2    -29.7320 146.4820   8.8620   H         4 ARG    0.0000
    55 HB3    -28.4530 146.0020   7.7390   H         4 ARG    0.0000
    56 HG2    -27.2510 148.0890   8.1940   H         4 ARG    0.0000
    57 HG3    -27.5520 147.1810   9.6910   H         4 ARG    0.0000
    58 HD2    -28.7610 149.7360   8.7160   H         4 ARG    0.0000
    59 HD3    -29.7260 148.6800   9.7630   H         4 ARG    0.0000
    60 HE     -27.1440 149.0910  10.9140   H         4 ARG    0.0000
    61 HH11   -30.1760 150.7420  10.2570   H         4 ARG    0.0000
    62 HH12   -30.0170 151.8310  11.6170   H         4 ARG    0.0000
    63 HH21   -26.9450 150.5020  12.6800   H         4 ARG    0.0000
    64 HH22   -28.1860 151.6950  12.9900   H         4 ARG    0.0000
    65 N      -28.8690 147.2670   4.7500   N.am      5 LEU    0.0000
    66 CA     -28.6370 146.5990   3.4690   C.3       5 LEU    0.0000
    67 C      -27.1760 146.7580   3.0620   C.2       5 LEU    0.0000
    68 O      -26.7910 147.7940   2.4940   O.2       5 LEU    0.0000
    69 CB     -29.5710 147.1450   2.3910   C.3       5 LEU    0.0000
    70 CG     -29.4150 146.6820   0.9390   C.3       5 LEU    0.0000
    71 CD1    -29.0910 145.2020   0.8440   C.3       5 LEU    0.0000
    72 CD2    -30.6790 146.9930   0.1510   C.3       5 LEU    0.0000
    73 H      -28.4610 148.1770   4.9070   H         5 LEU    0.0000
    74 HA     -28.8440 145.5360   3.5950   H         5 LEU    0.0000
    75 HB2    -30.5860 146.8900   2.6950   H         5 LEU    0.0000
    76 HB3    -29.4870 148.2320   2.4010   H         5 LEU    0.0000
    77 HG     -28.5910 147.2390   0.4920   H         5 LEU    0.0000
    78 HD11   -29.3080 144.8460  -0.1630   H         5 LEU    0.0000
    79 HD12   -28.0350 145.0470   1.0640   H         5 LEU    0.0000
    80 HD13   -29.6970 144.6510   1.5630   H         5 LEU    0.0000
    81 HD21   -30.9020 148.0570   0.2260   H         5 LEU    0.0000
    82 HD22   -30.5290 146.7260  -0.8950   H         5 LEU    0.0000
    83 HD23   -31.5110 146.4180   0.5570   H         5 LEU    0.0000
    84 N      -26.3350 145.7630   3.3430   N.am      2 PRO    0.0000
    85 CA     -24.9450 145.8020   2.8610   C.3       2 PRO    0.0000
    86 C      -24.8810 145.7500   1.3430   C.2       2 PRO    0.0000
    87 O      -25.4200 144.8390   0.7090   O.2       2 PRO    0.0000
    88 CB     -24.3210 144.5590   3.5030   C.3       2 PRO    0.0000
    89 CG     -25.1420 144.3300   4.7300   C.3       2 PRO    0.0000
    90 CD     -26.5450 144.6790   4.3160   C.3       2 PRO    0.0000
    91 HA     -24.4480 146.7010   3.2260   H         2 PRO    0.0000
    92 HB2    -24.3840 143.7040   2.8300   H         2 PRO    0.0000
    93 HB3    -23.2830 144.7530   3.7730   H         2 PRO    0.0000
    94 HG2    -25.0810 143.2880   5.0450   H         2 PRO    0.0000
    95 HG3    -24.8110 144.9870   5.5340   H         2 PRO    0.0000
    96 HD2    -27.1320 145.0240   5.1680   H         2 PRO    0.0000
    97 HD3    -27.0270 143.8250   3.8400   H         2 PRO    0.0000
    98 N      -24.2150 146.7430   0.7620   N.am      3 ILE    0.0000
    99 CA     -24.1530 146.9010  -0.6880   C.3       3 ILE    0.0000
   100 C      -23.0850 145.9710  -1.2510   C.2       3 ILE    0.0000
   101 O      -21.9160 146.0470  -0.8610   O.2       3 ILE    0.0000
   102 CB     -23.8620 148.3590  -1.0680   C.3       3 ILE    0.0000
   103 CG1    -25.0350 149.2590  -0.6740   C.3       3 ILE    0.0000
   104 CG2    -23.5320 148.4730  -2.5490   C.3       3 ILE    0.0000
   105 CD1    -24.7560 150.7380  -0.8470   C.3       3 ILE    0.0000
   106 H      -23.7340 147.4130   1.3450   H         3 ILE    0.0000
   107 HA     -25.1170 146.6180  -1.1100   H         3 ILE    0.0000
   108 HB     -22.9870 148.6830  -0.5040   H         3 ILE    0.0000
   109 HG12   -25.8930 148.9960  -1.2930   H         3 ILE    0.0000
   110 HG13   -25.2860 149.0700   0.3700   H         3 ILE    0.0000
   111 HG21   -23.3290 149.5150  -2.7970   H         3 ILE    0.0000
   112 HG22   -22.6530 147.8680  -2.7730   H         3 ILE    0.0000
   113 HG23   -24.3770 148.1170  -3.1380   H         3 ILE    0.0000
   114 HD11   -25.6330 151.3110  -0.5480   H         3 ILE    0.0000
   115 HD12   -24.5270 150.9440  -1.8920   H         3 ILE    0.0000
   116 HD13   -23.9070 151.0230  -0.2260   H         3 ILE    0.0000
   117 N      -23.4800 145.1070  -2.1820   N.am      6 VAL    0.0000
   118 CA     -22.5250 144.2350  -2.8610   C.3       6 VAL    0.0000
   119 C      -21.8930 144.9300  -4.0580   C.2       6 VAL    0.0000
   120 O      -20.6700 144.9190  -4.2170   O.2       6 VAL    0.0000
   121 CB     -23.2040 142.9130  -3.2760   C.3       6 VAL    0.0000
   122 CG1    -22.1580 141.9060  -3.7290   C.3       6 VAL    0.0000
   123 CG2    -24.0070 142.3510  -2.1200   C.3       6 VAL    0.0000
   124 H      -24.4590 145.0530  -2.4240   H         6 VAL    0.0000
   125 HA     -21.7300 143.9960  -2.1550   H         6 VAL    0.0000
   126 HB     -23.8800 143.1130  -4.1070   H         6 VAL    0.0000
   127 HG11   -21.5880 142.3220  -4.5600   H         6 VAL    0.0000
   128 HG12   -22.6520 140.9890  -4.0510   H         6 VAL    0.0000
   129 HG13   -21.4840 141.6850  -2.9010   H         6 VAL    0.0000
   130 HG21   -23.3590 141.7450  -1.4870   H         6 VAL    0.0000
   131 HG22   -24.8170 141.7330  -2.5070   H         6 VAL    0.0000
   132 HG23   -24.4230 143.1710  -1.5340   H         6 VAL    0.0000
   133 N      -22.7070 145.5400  -4.9160   N.am      7 ASP    0.0000
   134 CA     -22.1920 146.2470  -6.0810   C.3       7 ASP    0.0000
   135 C      -23.3040 147.0920  -6.6850   C.2       7 ASP    0.0000
   136 O      -24.4840 146.7380  -6.6020   O.2       7 ASP    0.0000
   137 CB     -21.6280 145.2730  -7.1250   C.3       7 ASP    0.0000
   138 CG     -20.5220 145.8900  -7.9520   C.2       7 ASP    0.0000
   139 OD1    -20.5040 147.1320  -8.0720   O.co2     7 ASP    0.0000
   140 OD2    -19.6590 145.1430  -8.4590   O.co2     7 ASP    0.0000
   141 H      -23.7040 145.5120  -4.7560   H         7 ASP    0.0000
   142 HA     -21.3900 146.9100  -5.7570   H         7 ASP    0.0000
   143 HB2    -22.4350 144.9690  -7.7920   H         7 ASP    0.0000
   144 HB3    -21.2390 144.3920  -6.6140   H         7 ASP    0.0000
   145 N      -22.9120 148.2200  -7.2730   N.am      8 LYS    0.0000
   146 CA     -23.8170 149.1170  -7.9750   C.3       8 LYS    0.0000
   147 C      -23.5390 149.0670  -9.4720   C.2       8 LYS    0.0000
   148 O      -22.4830 148.6070  -9.9160   O.2       8 LYS    0.0000
   149 CB     -23.6720 150.5590  -7.4730   C.3       8 LYS    0.0000
   150 CG     -22.5000 151.3090  -8.0930   C.3       8 LYS    0.0000
   151 CD     -21.1720 150.8780  -7.4980   C.3       8 LYS    0.0000
   152 CE     -20.0220 151.7190  -8.0280   C.3       8 LYS    0.0000
   153 NZ     -18.7040 151.0860  -7.7320   N.4       8 LYS    0.0000
   154 H      -21.9330 148.4660  -7.2290   H         8 LYS    0.0000
   155 HA     -24.8410 148.7880  -7.7990   H         8 LYS    0.0000
   156 HB2    -24.5890 151.0990  -7.7090   H         8 LYS    0.0000
   157 HB3    -23.5440 150.5420  -6.3910   H         8 LYS    0.0000
   158 HG2    -22.6340 152.3770  -7.9190   H         8 LYS    0.0000
   159 HG3    -22.4860 151.1220  -9.1670   H         8 LYS    0.0000
   160 HD2    -20.9930 149.8330  -7.7530   H         8 LYS    0.0000
   161 HD3    -21.2170 150.9780  -6.4140   H         8 LYS    0.0000
   162 HE2    -20.0560 152.7020  -7.5590   H         8 LYS    0.0000
   163 HE3    -20.1300 151.8330  -9.1070   H         8 LYS    0.0000
   164 HZ1    -17.9620 151.6670  -8.0960   H         8 LYS    0.0000
   165 HZ2    -18.5950 150.9870  -6.7330   H         8 LYS    0.0000
   166 HZ3    -18.6630 150.1750  -8.1670   H         8 LYS    0.0000
   167 N      -24.5020 149.5540 -10.2520   N.am      9 TYR    0.0000
   168 CA     -24.3260 149.6370 -11.6950   C.3       9 TYR    0.0000
   169 C      -25.3060 150.6490 -12.2690   C.2       9 TYR    0.0000
   170 O      -26.4760 150.6840 -11.8790   O.2       9 TYR    0.0000
   171 CB     -24.5000 148.2700 -12.3640   C.3       9 TYR    0.0000
   172 CG     -25.9250 147.7830 -12.4870   C.ar      9 TYR    0.0000
   173 CD1    -26.6210 147.3290 -11.3760   C.ar      9 TYR    0.0000
   174 CD2    -26.5650 147.7510 -13.7180   C.ar      9 TYR    0.0000
   175 CE1    -27.9190 146.8700 -11.4840   C.ar      9 TYR    0.0000
   176 CE2    -27.8630 147.2920 -13.8360   C.ar      9 TYR    0.0000
   177 CZ     -28.5360 146.8550 -12.7170   C.ar      9 TYR    0.0000
   178 OH     -29.8300 146.3990 -12.8300   O.3       9 TYR    0.0000
   179 H      -25.3670 149.8700  -9.8370   H         9 TYR    0.0000
   180 HA     -23.3140 149.9890 -11.8960   H         9 TYR    0.0000
   181 HB2    -24.0780 148.3310 -13.3670   H         9 TYR    0.0000
   182 HB3    -23.9320 147.5330 -11.7960   H         9 TYR    0.0000
   183 HD1    -26.1390 147.3350 -10.4090   H         9 TYR    0.0000
   184 HD2    -26.0400 148.0910 -14.5980   H         9 TYR    0.0000
   185 HE1    -28.4480 146.5250 -10.6080   H         9 TYR    0.0000
   186 HE2    -28.3470 147.2760 -14.8010   H         9 TYR    0.0000
   187 HH     -30.3870 147.0990 -13.1790   H         9 TYR    0.0000
   188 N      -24.8110 151.4720 -13.1920   N.am      8 LYS    0.0000
   189 CA     -25.6010 152.5520 -13.7740   C.3       8 LYS    0.0000
   190 C      -26.6160 151.9830 -14.7570   C.2       8 LYS    0.0000
   191 O      -26.2500 151.4790 -15.8240   O.2       8 LYS    0.0000
   192 H      -23.8570 151.3440 -13.4990   H         8 LYS    0.0000
   193 CB     -24.7070 153.5510 -14.4720   C.3       8 LYS    0.0000
   194 CG     -24.1380 154.5410 -13.4610   C.3       8 LYS    0.0000
   195 CD     -23.1330 153.8280 -12.5620   C.3       8 LYS    0.0000
   196 CE     -22.5380 154.8250 -11.5740   C.3       8 LYS    0.0000
   197 NZ     -21.6120 154.1270 -10.6700   N.4       8 LYS    0.0000
   198 HA     -26.1380 153.0620 -12.9740   H         8 LYS    0.0000
   199 HB2    -23.8880 153.0230 -14.9590   H         8 LYS    0.0000
   200 HB3    -25.2850 154.0920 -15.2210   H         8 LYS    0.0000
   201 HG2    -23.6400 155.3540 -13.9890   H         8 LYS    0.0000
   202 HG3    -24.9470 154.9440 -12.8520   H         8 LYS    0.0000
   203 HD2    -22.3360 153.4030 -13.1730   H         8 LYS    0.0000
   204 HD3    -23.6360 153.0300 -12.0160   H         8 LYS    0.0000
   205 HE2    -23.3380 155.2810 -10.9910   H         8 LYS    0.0000
   206 HE3    -21.9980 155.6000 -12.1190   H         8 LYS    0.0000
   207 HZ1    -20.6650 154.4160 -10.8700   H         8 LYS    0.0000
   208 HZ2    -21.8390 154.3550  -9.7130   H         8 LYS    0.0000
   209 HZ3    -21.6960 153.1290 -10.8080   H         8 LYS    0.0000
   210 N      -27.8930 152.0640 -14.3940   N.am      7 ASP    0.0000
   211 CA     -28.9980 151.6610 -15.2520   C.3       7 ASP    0.0000
   212 C      -30.2520 152.3210 -14.6990   C.2       7 ASP    0.0000
   213 O      -30.3900 152.4830 -13.4830   O.2       7 ASP    0.0000
   214 CB     -29.1300 150.1320 -15.3130   C.3       7 ASP    0.0000
   215 CG     -30.4470 149.6730 -15.9110   C.2       7 ASP    0.0000
   216 OD1    -31.4490 149.6010 -15.1700   O.co2     7 ASP    0.0000
   217 OD2    -30.4780 149.3780 -17.1240   O.co2     7 ASP    0.0000
   218 H      -28.1070 152.4240 -13.4750   H         7 ASP    0.0000
   219 HA     -28.8170 152.0380 -16.2580   H         7 ASP    0.0000
   220 HB2    -29.0520 149.7360 -14.3000   H         7 ASP    0.0000
   221 HB3    -28.3120 149.7310 -15.9120   H         7 ASP    0.0000
   222 N      -31.1590 152.7020 -15.5980   N.am     10 MET    0.0000
   223 CA     -32.2780 153.5900 -15.2460   C.3      10 MET    0.0000
   224 C      -31.6350 154.8390 -14.6440   C.2      10 MET    0.0000
   225 O      -30.7760 155.4520 -15.3000   O.2      10 MET    0.0000
   226 CB     -33.2900 152.8740 -14.3570   C.3      10 MET    0.0000
   227 CG     -33.8360 151.5720 -14.9180   C.3      10 MET    0.0000
   228 SD     -34.8780 151.8220 -16.3660   S.3      10 MET    0.0000
   229 CE     -36.0530 153.0040 -15.7130   C.3      10 MET    0.0000
   230 H      -31.0760 152.3710 -16.5490   H        10 MET    0.0000
   231 HA     -32.7830 153.8800 -16.1680   H        10 MET    0.0000
   232 HB2    -32.8070 152.6550 -13.4050   H        10 MET    0.0000
   233 HB3    -34.1260 153.5480 -14.1730   H        10 MET    0.0000
   234 HG2    -34.4260 151.0790 -14.1450   H        10 MET    0.0000
   235 HG3    -33.0010 150.9270 -15.1910   H        10 MET    0.0000
   236 HE1    -36.9820 152.9450 -16.2810   H        10 MET    0.0000
   237 HE2    -36.2520 152.7770 -14.6660   H        10 MET    0.0000
   238 HE3    -35.6400 154.0100 -15.7950   H        10 MET    0.0000
   239 N      -32.0010 155.2510 -13.4330   N.am      1 GLY    0.0000
   240 CA     -31.2550 156.2850 -12.7440   C.3       1 GLY    0.0000
   241 C      -29.9920 155.7480 -12.1010   C.2       1 GLY    0.0000
   242 O      -28.8810 156.1360 -12.4770   O.2       1 GLY    0.0000
   243 H      -32.8090 154.8380 -12.9880   H         1 GLY    0.0000
   244 HA2    -31.8880 156.7160 -11.9680   H         1 GLY    0.0000
   245 HA3    -30.9870 157.0640 -13.4570   H         1 GLY    0.0000
   246 N      -30.1540 154.8370 -11.1400   N.am     11 THR    0.0000
   247 CA     -29.0400 154.2070 -10.4360   C.3      11 THR    0.0000
   248 C      -29.5480 153.0170  -9.6300   C.2      11 THR    0.0000
   249 O      -30.5250 153.1420  -8.8850   O.2      11 THR    0.0000
   250 CB     -28.3290 155.2030  -9.5120   C.3      11 THR    0.0000
   251 OG1    -27.6780 156.2120 -10.2930   O.3      11 THR    0.0000
   252 CG2    -27.2920 154.4950  -8.6560   C.3      11 THR    0.0000
   253 H      -31.0940 154.5690 -10.8860   H        11 THR    0.0000
   254 HA     -28.3230 153.8460 -11.1740   H        11 THR    0.0000
   255 HB     -29.0660 155.6750  -8.8620   H        11 THR    0.0000
   256 HG1    -27.6560 155.9400 -11.2130   H        11 THR    0.0000
   257 HG21   -26.7990 155.2200  -8.0080   H        11 THR    0.0000
   258 HG22   -26.5510 154.0220  -9.3000   H        11 THR    0.0000
   259 HG23   -27.7810 153.7360  -8.0460   H        11 THR    0.0000
   260 N      -28.8970 151.8630  -9.7680   N.am      6 VAL    0.0000
   261 CA     -29.3480 150.6320  -9.1310   C.3       6 VAL    0.0000
   262 C      -28.2300 150.0890  -8.2520   C.2       6 VAL    0.0000
   263 O      -27.0410 150.2660  -8.5380   O.2       6 VAL    0.0000
   264 CB     -29.7920 149.5760 -10.1720   C.3       6 VAL    0.0000
   265 CG1    -30.5340 148.4280  -9.5000   C.3       6 VAL    0.0000
   266 CG2    -30.6670 150.2080 -11.2400   C.3       6 VAL    0.0000
   267 H      -28.0610 151.8400 -10.3340   H         6 VAL    0.0000
   268 HA     -30.2010 150.8670  -8.4950   H         6 VAL    0.0000
   269 HB     -28.9010 149.1730 -10.6530   H         6 VAL    0.0000
   270 HG11   -29.8980 147.9810  -8.7360   H         6 VAL    0.0000
   271 HG12   -31.4460 148.8060  -9.0380   H         6 VAL    0.0000
   272 HG13   -30.7900 147.6750 -10.2450   H         6 VAL    0.0000
   273 HG21   -30.1270 151.0280 -11.7140   H         6 VAL    0.0000
   274 HG22   -31.5790 150.5910 -10.7820   H         6 VAL    0.0000
   275 HG23   -30.9230 149.4590 -11.9900   H         6 VAL    0.0000
   276 N      -28.6260 149.4210  -7.1670   N.am      6 VAL    0.0000
   277 CA     -27.7090 148.9070  -6.1550   C.3       6 VAL    0.0000
   278 C      -28.1380 147.4890  -5.7920   C.2       6 VAL    0.0000
   279 O      -29.3340 147.1800  -5.7680   O.2       6 VAL    0.0000
   280 CB     -27.6840 149.8170  -4.9060   C.3       6 VAL    0.0000
   281 CG1    -26.7360 149.2770  -3.8610   C.3       6 VAL    0.0000
   282 CG2    -27.2860 151.2340  -5.2820   C.3       6 VAL    0.0000
   283 H      -29.6150 149.2620  -7.0390   H         6 VAL    0.0000
   284 HA     -26.7060 148.8700  -6.5800   H         6 VAL    0.0000
   285 HB     -28.6870 149.8430  -4.4800   H         6 VAL    0.0000
   286 HG21   -27.9740 151.6170  -6.0360   H         6 VAL    0.0000
   287 HG22   -26.2720 151.2320  -5.6830   H         6 VAL    0.0000
   288 HG23   -27.3260 151.8690  -4.3970   H         6 VAL    0.0000
   289 HG11   -27.0270 148.2610  -3.5960   H         6 VAL    0.0000
   290 HG12   -25.7210 149.2720  -4.2590   H         6 VAL    0.0000
   291 HG13   -26.7750 149.9090  -2.9740   H         6 VAL    0.0000
   292 N      -27.1620 146.6250  -5.5120   N.am      5 LEU    0.0000
   293 CA     -27.4070 145.2240  -5.2010   C.3       5 LEU    0.0000
   294 C      -27.0310 144.9020  -3.7590   C.2       5 LEU    0.0000
   295 O      -26.1130 145.4980  -3.1870   O.2       5 LEU    0.0000
   296 CB     -26.6250 144.2970  -6.1370   C.3       5 LEU    0.0000
   297 CG     -27.1700 144.0950  -7.5500   C.3       5 LEU    0.0000
   298 CD1    -26.6380 145.1550  -8.5030   C.3       5 LEU    0.0000
   299 CD2    -26.8360 142.6990  -8.0390   C.3       5 LEU    0.0000
   300 H      -26.2080 146.9580  -5.5160   H         5 LEU    0.0000
   301 HA     -28.4710 145.0250  -5.3310   H         5 LEU    0.0000
   302 HB2    -25.6180 144.7030  -6.2310   H         5 LEU    0.0000
   303 HB3    -26.5520 143.3190  -5.6600   H         5 LEU    0.0000
   304 HG     -28.2550 144.1890  -7.5110   H         5 LEU    0.0000
   305 HD21   -27.2280 142.5630  -9.0470   H         5 LEU    0.0000
   306 HD22   -27.2860 141.9630  -7.3720   H         5 LEU    0.0000
   307 HD23   -25.7540 142.5670  -8.0490   H         5 LEU    0.0000
   308 HD11   -26.8930 146.1450  -8.1250   H         5 LEU    0.0000
   309 HD12   -27.0850 145.0160  -9.4870   H         5 LEU    0.0000
   310 HD13   -25.5550 145.0640  -8.5800   H         5 LEU    0.0000
   311 N      -27.7550 143.9510  -3.1800   N.am      1 GLY    0.0000
   312 CA     -27.3950 143.4230  -1.8780   C.3       1 GLY    0.0000
   313 C      -28.4440 142.4520  -1.3830   C.2       1 GLY    0.0000
   314 O      -29.4840 142.2440  -2.0170   O.2       1 GLY    0.0000
   315 H      -28.5700 143.5890  -3.6540   H         1 GLY    0.0000
   316 HA2    -26.4380 142.9070  -1.9540   H         1 GLY    0.0000
   317 HA3    -27.3040 144.2460  -1.1690   H         1 GLY    0.0000
   318 N      -28.1480 141.8520  -0.2320   N.am      8 LYS    0.0000
   319 CA     -29.1110 141.0530   0.5140   C.3       8 LYS    0.0000
   320 C      -29.6260 141.8730   1.6880   C.2       8 LYS    0.0000
   321 O      -28.8380 142.4740   2.4270   O.2       8 LYS    0.0000
   322 CB     -28.4910 139.7480   1.0170   C.3       8 LYS    0.0000
   323 CG     -29.4480 138.9080   1.8640   C.3       8 LYS    0.0000
   324 CD     -29.0230 137.4470   1.9740   C.3       8 LYS    0.0000
   325 CE     -29.2590 136.6900   0.6790   C.3       8 LYS    0.0000
   326 NZ     -29.0360 135.2270   0.8320   N.4       8 LYS    0.0000
   327 H      -27.2150 141.9550   0.1400   H         8 LYS    0.0000
   328 HA     -29.9490 140.8130  -0.1400   H         8 LYS    0.0000
   329 HB2    -28.1830 139.1570   0.1540   H         8 LYS    0.0000
   330 HB3    -27.6100 139.9850   1.6130   H         8 LYS    0.0000
   331 HG2    -30.4390 138.9480   1.4110   H         8 LYS    0.0000
   332 HG3    -29.5010 139.3360   2.8650   H         8 LYS    0.0000
   333 HD2    -27.9610 137.4060   2.2170   H         8 LYS    0.0000
   334 HD3    -29.5900 136.9700   2.7740   H         8 LYS    0.0000
   335 HE2    -30.2870 136.8560   0.3580   H         8 LYS    0.0000
   336 HE3    -28.5830 137.0740  -0.0850   H         8 LYS    0.0000
   337 HZ1    -29.2040 134.7660  -0.0510   H         8 LYS    0.0000
   338 HZ2    -29.6700 134.8610   1.5280   H         8 LYS    0.0000
   339 HZ3    -28.0830 135.0600   1.1230   H         8 LYS    0.0000
   340 N      -30.9410 141.8760   1.8720   N.am      5 LEU    0.0000
   341 CA     -31.5910 142.7800   2.8120   C.3       5 LEU    0.0000
   342 C      -31.7290 142.0570   4.1460   C.2       5 LEU    0.0000
   343 O      -32.5350 141.1310   4.2810   O.2       5 LEU    0.0000
   344 CB     -32.9410 143.2290   2.2560   C.3       5 LEU    0.0000
   345 CG     -33.7580 144.3080   2.9680   C.3       5 LEU    0.0000
   346 CD1    -34.6820 143.6850   3.9870   C.3       5 LEU    0.0000
   347 CD2    -32.8510 145.3390   3.6210   C.3       5 LEU    0.0000
   348 H      -31.5100 141.2300   1.3430   H         5 LEU    0.0000
   349 HA     -30.9590 143.6570   2.9510   H         5 LEU    0.0000
   350 HB2    -33.5710 142.3400   2.2120   H         5 LEU    0.0000
   351 HB3    -32.7770 143.5650   1.2320   H         5 LEU    0.0000
   352 HG     -34.3690 144.8170   2.2230   H         5 LEU    0.0000
   353 HD11   -35.2560 144.4670   4.4840   H         5 LEU    0.0000
   354 HD12   -35.3640 142.9970   3.4870   H         5 LEU    0.0000
   355 HD13   -34.0940 143.1400   4.7260   H         5 LEU    0.0000
   356 HD21   -33.4310 146.2280   3.8690   H         5 LEU    0.0000
   357 HD22   -32.4210 144.9200   4.5310   H         5 LEU    0.0000
   358 HD23   -32.0510 145.6080   2.9310   H         5 LEU    0.0000
   359 N      -30.9380 142.4810   5.1310   N.am     12 GLU    0.0000
   360 CA     -30.7600 141.7340   6.3700   C.3      12 GLU    0.0000
   361 C      -31.6110 142.2390   7.5260   C.2      12 GLU    0.0000
   362 O      -31.9660 141.4460   8.4040   O.2      12 GLU    0.0000
   363 CB     -29.2860 141.7610   6.7930   C.3      12 GLU    0.0000
   364 CG     -28.3030 141.6160   5.6420   C.3      12 GLU    0.0000
   365 CD     -27.8220 140.1880   5.4580   C.2      12 GLU    0.0000
   366 OE1    -27.9760 139.3820   6.3990   O.co2    12 GLU    0.0000
   367 OE2    -27.2940 139.8720   4.3700   O.co2    12 GLU    0.0000
   368 H      -30.4430 143.3540   5.0150   H        12 GLU    0.0000
   369 HA     -31.0350 140.6970   6.1790   H        12 GLU    0.0000
   370 HB2    -29.0910 142.7110   7.2910   H        12 GLU    0.0000
   371 HB3    -29.1120 140.9530   7.5040   H        12 GLU    0.0000
   372 HG2    -27.4400 142.2520   5.8390   H        12 GLU    0.0000
   373 HG3    -28.7840 141.9480   4.7220   H        12 GLU    0.0000
   374 N      -31.9400 143.5280   7.5610   N.am     13 SER    0.0000
   375 CA     -32.7010 144.1130   8.6580   C.3      13 SER    0.0000
   376 C      -33.9610 144.7910   8.1380   C.2      13 SER    0.0000
   377 O      -33.8930 145.6200   7.2250   O.2      13 SER    0.0000
   378 CB     -31.8460 145.1190   9.4340   C.3      13 SER    0.0000
   379 OG     -32.5660 145.6610  10.5280   O.3      13 SER    0.0000
   380 H      -31.6510 144.1240   6.7980   H        13 SER    0.0000
   381 HA     -32.9950 143.3140   9.3380   H        13 SER    0.0000
   382 HB2    -30.9550 144.6150   9.8090   H        13 SER    0.0000
   383 HB3    -31.5470 145.9270   8.7660   H        13 SER    0.0000
   384 HG     -33.3140 146.1660  10.2010   H        13 SER    0.0000
   385 N      -35.1100 144.4130   8.7000   N.am      1 GLY    0.0000
   386 CA     -36.3180 145.2020   8.5650   C.3       1 GLY    0.0000
   387 C      -36.9780 145.0670   7.2070   C.2       1 GLY    0.0000
   388 O      -36.5440 144.3230   6.3290   O.2       1 GLY    0.0000
   389 H      -35.1390 143.5560   9.2330   H         1 GLY    0.0000
   390 HA2    -36.0650 146.2500   8.7230   H         1 GLY    0.0000
   391 HA3    -37.0270 144.8920   9.3330   H         1 GLY    0.0000
   392 N      -38.0650 145.8140   7.0410   N.am     13 SER    0.0000
   393 CA     -38.8290 145.8380   5.8050   C.3      13 SER    0.0000
   394 C      -38.5650 147.1500   5.0790   C.2      13 SER    0.0000
   395 O      -38.2590 148.1700   5.7020   O.2      13 SER    0.0000
   396 CB     -40.3290 145.6830   6.0750   C.3      13 SER    0.0000
   397 OG     -41.0230 145.3120   4.8970   O.3      13 SER    0.0000
   398 H      -38.3740 146.3920   7.8100   H        13 SER    0.0000
   399 HA     -38.4990 145.0140   5.1720   H        13 SER    0.0000
   400 HB2    -40.7250 146.6310   6.4380   H        13 SER    0.0000
   401 HB3    -40.4790 144.9170   6.8360   H        13 SER    0.0000
   402 HG     -40.4340 144.8230   4.3190   H        13 SER    0.0000
   403 N      -38.6950 147.1190   3.7560   N.am      3 ILE    0.0000
   404 CA     -38.3590 148.2560   2.9080   C.3       3 ILE    0.0000
   405 C      -39.5260 148.5180   1.9620   C.2       3 ILE    0.0000
   406 O      -39.8680 147.6650   1.1340   O.2       3 ILE    0.0000
   407 CB     -37.0420 148.0310   2.1390   C.3       3 ILE    0.0000
   408 CG1    -36.7170 149.2310   1.2430   C.3       3 ILE    0.0000
   409 CG2    -37.0420 146.7050   1.3810   C.3       3 ILE    0.0000
   410 CD1    -35.2490 149.5810   1.2210   C.3       3 ILE    0.0000
   411 H      -39.0400 146.2750   3.3220   H         3 ILE    0.0000
   412 HA     -38.2350 149.1310   3.5460   H         3 ILE    0.0000
   413 HB     -36.2480 147.9690   2.8840   H         3 ILE    0.0000
   414 HG12   -37.0320 148.9980   0.2260   H         3 ILE    0.0000
   415 HG13   -37.2790 150.0960   1.5960   H         3 ILE    0.0000
   416 HG21   -36.0950 146.5870   0.8540   H         3 ILE    0.0000
   417 HG22   -37.1690 145.8840   2.0860   H         3 ILE    0.0000
   418 HG23   -37.8620 146.6970   0.6630   H         3 ILE    0.0000
   419 HD11   -35.0890 150.4390   0.5680   H         3 ILE    0.0000
   420 HD12   -34.9190 149.8270   2.2300   H         3 ILE    0.0000
   421 HD13   -34.6780 148.7300   0.8490   H         3 ILE    0.0000
   422 N      -40.1540 149.6790   2.1100   N.am     14 CYS    0.0000
   423 CA     -41.2940 150.0590   1.2910   C.3      14 CYS    0.0000
   424 C      -40.8380 150.8000   0.0380   C.2      14 CYS    0.0000
   425 O      -39.7310 151.3390  -0.0310   O.2      14 CYS    0.0000
   426 CB     -42.2660 150.9310   2.0890   C.3      14 CYS    0.0000
   427 SG     -42.7750 150.2310   3.6760   S.3      14 CYS    0.0000
   428 H      -39.8280 150.3220   2.8180   H        14 CYS    0.0000
   429 HA     -41.8160 149.1520   0.9850   H        14 CYS    0.0000
   430 HB2    -41.7840 151.8900   2.2790   H        14 CYS    0.0000
   431 HB3    -43.1560 151.1030   1.4840   H        14 CYS    0.0000
   432 HG     -41.6980 150.0320   4.4420   H        14 CYS    0.0000
   433 N      -41.7120 150.8100  -0.9670   N.am      8 LYS    0.0000
   434 CA     -41.4370 151.5480  -2.1920   C.3       8 LYS    0.0000
   435 C      -41.3960 153.0450  -1.9090   C.2       8 LYS    0.0000
   436 O      -42.2760 153.5820  -1.2290   O.2       8 LYS    0.0000
   437 H      -42.5780 150.2980  -0.8780   H         8 LYS    0.0000
   438 CB     -42.4920 151.2600  -3.2420   C.3       8 LYS    0.0000
   439 CG     -43.8600 151.1730  -2.5740   C.3       8 LYS    0.0000
   440 CD     -44.5970 152.4960  -2.7520   C.3       8 LYS    0.0000
   441 CE     -45.5630 152.3870  -3.9270   C.3       8 LYS    0.0000
   442 NZ     -44.8000 152.2820  -5.1800   N.4       8 LYS    0.0000
   443 HA     -40.4660 151.2380  -2.5770   H         8 LYS    0.0000
   444 HB2    -42.4980 152.0620  -3.9800   H         8 LYS    0.0000
   445 HB3    -42.2660 150.3140  -3.7340   H         8 LYS    0.0000
   446 HG2    -44.4380 150.3710  -3.0340   H         8 LYS    0.0000
   447 HG3    -43.7340 150.9680  -1.5110   H         8 LYS    0.0000
   448 HD2    -43.8770 153.2900  -2.9470   H         8 LYS    0.0000
   449 HD3    -45.1550 152.7260  -1.8440   H         8 LYS    0.0000
   450 HE2    -46.1840 151.4990  -3.8060   H         8 LYS    0.0000
   451 HE3    -46.1970 153.2720  -3.9610   H         8 LYS    0.0000
   452 HZ1    -45.3800 152.5740  -5.9530   H         8 LYS    0.0000
   453 HZ2    -43.9850 152.8760  -5.1280   H         8 LYS    0.0000
   454 HZ3    -44.5110 151.3250  -5.3190   H         8 LYS    0.0000
   455 N      -40.3730 153.7160  -2.4320   N.am      1 GLY    0.0000
   456 CA     -40.2280 155.1420  -2.2110   C.3       1 GLY    0.0000
   457 C      -39.8760 155.5480  -0.7990   C.2       1 GLY    0.0000
   458 O      -40.0000 156.7260  -0.4570   O.2       1 GLY    0.0000
   459 H      -39.6890 153.2260  -2.9900   H         1 GLY    0.0000
   460 HA2    -39.4410 155.5060  -2.8710   H         1 GLY    0.0000
   461 HA3    -41.1630 155.6300  -2.4870   H         1 GLY    0.0000
   462 N      -39.4300 154.6090   0.0330   N.am     15 GLN    0.0000
   463 CA     -39.1260 154.8900   1.4330   C.3      15 GLN    0.0000
   464 C      -37.7990 155.6360   1.5100   C.2      15 GLN    0.0000
   465 O      -36.7430 155.0650   1.2210   O.2      15 GLN    0.0000
   466 CB     -39.0840 153.5930   2.2360   C.3      15 GLN    0.0000
   467 CG     -39.1320 153.7840   3.7410   C.3      15 GLN    0.0000
   468 CD     -39.3600 152.4800   4.4800   C.2      15 GLN    0.0000
   469 OE1    -39.3520 151.4050   3.8810   O.2      15 GLN    0.0000
   470 NE2    -39.5740 152.5700   5.7870   N.am     15 GLN    0.0000
   471 H      -39.2980 153.6710  -0.3160   H        15 GLN    0.0000
   472 HA     -39.9100 155.5280   1.8400   H        15 GLN    0.0000
   473 HB2    -39.9380 152.9830   1.9430   H        15 GLN    0.0000
   474 HB3    -38.1700 153.0560   1.9820   H        15 GLN    0.0000
   475 HG2    -38.1850 154.2120   4.0700   H        15 GLN    0.0000
   476 HG3    -39.9380 154.4760   3.9850   H        15 GLN    0.0000
   477 HE21   -39.5750 153.4740   6.2370   H        15 GLN    0.0000
   478 HE22   -39.7360 151.7340   6.3310   H        15 GLN    0.0000
   479 N      -37.8550 156.9200   1.8720   N.am     15 GLN    0.0000
   480 CA     -36.6510 157.7350   1.9960   C.3      15 GLN    0.0000
   481 C      -35.6490 157.0830   2.9410   C.2      15 GLN    0.0000
   482 O      -36.0170 156.5580   3.9950   O.2      15 GLN    0.0000
   483 CB     -37.0160 159.1330   2.5000   C.3      15 GLN    0.0000
   484 CG     -37.5310 160.0760   1.4230   C.3      15 GLN    0.0000
   485 CD     -36.4340 160.9410   0.8320   C.2      15 GLN    0.0000
   486 OE1    -35.3960 161.1570   1.4580   O.2      15 GLN    0.0000
   487 NE2    -36.6650 161.4550  -0.3710   N.am     15 GLN    0.0000
   488 H      -38.7540 157.3380   2.0650   H        15 GLN    0.0000
   489 HA     -36.1910 157.8290   1.0120   H        15 GLN    0.0000
   490 HB2    -36.1260 159.5780   2.9450   H        15 GLN    0.0000
   491 HB3    -37.7800 159.0360   3.2720   H        15 GLN    0.0000
   492 HG2    -37.9770 159.4830   0.6240   H        15 GLN    0.0000
   493 HG3    -38.2970 160.7210   1.8540   H        15 GLN    0.0000
   494 HE21   -37.5340 161.2570  -0.8470   H        15 GLN    0.0000
   495 HE22   -35.9720 162.0440  -0.8100   H        15 GLN    0.0000
   496 N      -34.3730 157.1300   2.5630   N.am      5 LEU    0.0000
   497 CA     -33.3180 156.4570   3.3120   C.3       5 LEU    0.0000
   498 C      -32.0640 157.3230   3.2990   C.2       5 LEU    0.0000
   499 O      -32.0780 158.4810   2.8700   O.2       5 LEU    0.0000
   500 CB     -33.0240 155.0650   2.7350   C.3       5 LEU    0.0000
   501 CG     -34.1120 153.9940   2.7810   C.3       5 LEU    0.0000
   502 CD1    -33.6130 152.7210   2.1200   C.3       5 LEU    0.0000
   503 CD2    -34.5450 153.7270   4.2130   C.3       5 LEU    0.0000
   504 H      -34.1280 157.6480   1.7310   H         5 LEU    0.0000
   505 HA     -33.6470 156.3410   4.3450   H         5 LEU    0.0000
   506 HB2    -32.1650 154.6700   3.2780   H         5 LEU    0.0000
   507 HB3    -32.7280 155.1930   1.6940   H         5 LEU    0.0000
   508 HG     -34.9750 154.3560   2.2220   H         5 LEU    0.0000
   509 HD11   -34.3940 151.9620   2.1570   H         5 LEU    0.0000
   510 HD12   -32.7300 152.3600   2.6480   H         5 LEU    0.0000
   511 HD13   -33.3560 152.9280   1.0810   H         5 LEU    0.0000
   512 HD21   -34.8980 154.6540   4.6650   H         5 LEU    0.0000
   513 HD22   -35.3490 152.9910   4.2180   H         5 LEU    0.0000
   514 HD23   -33.6990 153.3440   4.7830   H         5 LEU    0.0000
   515 N      -30.9690 156.7370   3.7860   N.am      6 VAL    0.0000
   516 CA     -29.6530 157.3620   3.7790   C.3       6 VAL    0.0000
   517 C      -28.6260 156.2510   3.6110   C.2       6 VAL    0.0000
   518 O      -28.9170 155.0720   3.8270   O.2       6 VAL    0.0000
   519 CB     -29.3880 158.1740   5.0720   C.3       6 VAL    0.0000
   520 CG1    -28.8730 157.2670   6.1810   C.3       6 VAL    0.0000
   521 CG2    -28.4180 159.3150   4.8090   C.3       6 VAL    0.0000
   522 H      -31.0570 155.8110   4.1800   H         6 VAL    0.0000
   523 HA     -29.5870 158.0330   2.9230   H         6 VAL    0.0000
   524 HB     -30.3340 158.6040   5.4000   H         6 VAL    0.0000
   525 HG21   -28.8090 159.9490   4.0130   H         6 VAL    0.0000
   526 HG22   -27.4520 158.9090   4.5090   H         6 VAL    0.0000
   527 HG23   -28.2970 159.9060   5.7170   H         6 VAL    0.0000
   528 HG11   -29.0150 157.7550   7.1450   H         6 VAL    0.0000
   529 HG12   -27.8120 157.0710   6.0260   H         6 VAL    0.0000
   530 HG13   -29.4230 156.3260   6.1650   H         6 VAL    0.0000
   531 N      -27.4160 156.6290   3.2090   N.am     10 MET    0.0000
   532 CA     -26.3020 155.6970   3.0810   C.3      10 MET    0.0000
   533 C      -25.2690 156.0420   4.1430   C.2      10 MET    0.0000
   534 O      -24.7530 157.1640   4.1700   O.2      10 MET    0.0000
   535 CB     -25.6950 155.7370   1.6800   C.3      10 MET    0.0000
   536 CG     -26.1560 154.5800   0.8070   C.3      10 MET    0.0000
   537 SD     -25.3290 154.4740  -0.7890   S.3      10 MET    0.0000
   538 CE     -23.6500 154.8790  -0.3220   C.3      10 MET    0.0000
   539 H      -27.2620 157.6010   2.9830   H        10 MET    0.0000
   540 HA     -26.6700 154.6890   3.2700   H        10 MET    0.0000
   541 HB2    -25.9850 156.6720   1.2010   H        10 MET    0.0000
   542 HB3    -24.6090 155.7050   1.7640   H        10 MET    0.0000
   543 HG2    -27.2260 154.6930   0.6290   H        10 MET    0.0000
   544 HG3    -25.9890 153.6480   1.3480   H        10 MET    0.0000
   545 HE1    -22.9640 154.5370  -1.0970   H        10 MET    0.0000
   546 HE2    -23.4070 154.3880   0.6200   H        10 MET    0.0000
   547 HE3    -23.5560 155.9590  -0.2040   H        10 MET    0.0000
   548 N      -24.9590 155.0670   4.9990   N.am     10 MET    0.0000
   549 CA     -24.3140 155.3570   6.2790   C.3      10 MET    0.0000
   550 C      -22.9230 155.9740   6.1690   C.2      10 MET    0.0000
   551 O      -22.6740 156.9800   6.8570   O.2      10 MET    0.0000
   552 H      -25.1740 154.1100   4.7580   H        10 MET    0.0000
   553 CB     -24.2510 154.1000   7.1230   C.3      10 MET    0.0000
   554 CG     -23.7280 154.4540   8.5110   C.3      10 MET    0.0000
   555 SD     -21.9180 154.4550   8.5090   S.3      10 MET    0.0000
   556 CE     -21.6080 155.1510  10.1180   C.3      10 MET    0.0000
   557 HA     -24.9460 156.0710   6.8070   H        10 MET    0.0000
   558 HB2    -25.2480 153.6670   7.2080   H        10 MET    0.0000
   559 HB3    -23.5800 153.3800   6.6540   H        10 MET    0.0000
   560 HG2    -24.0880 153.7180   9.2300   H        10 MET    0.0000
   561 HG3    -24.0910 155.4420   8.7930   H        10 MET    0.0000
   562 HE1    -22.5040 155.6620  10.4720   H        10 MET    0.0000
   563 HE2    -21.3470 154.3540  10.8140   H        10 MET    0.0000
   564 HE3    -20.7850 155.8620  10.0540   H        10 MET    0.0000
   565 N      -21.9770 155.4400   5.3810   N.am      2 PRO    0.0000
   566 CA     -20.5900 155.9380   5.5020   C.3       2 PRO    0.0000
   567 C      -20.4320 157.4280   5.2420   C.2       2 PRO    0.0000
   568 O      -19.6630 158.0900   5.9490   O.2       2 PRO    0.0000
   569 CB     -19.8150 155.1080   4.4700   C.3       2 PRO    0.0000
   570 CG     -20.6710 153.9770   4.1250   C.3       2 PRO    0.0000
   571 CD     -22.0780 154.2770   4.4810   C.3       2 PRO    0.0000
   572 HA     -20.2140 155.7080   6.4990   H         2 PRO    0.0000
   573 HB2    -19.6070 155.7070   3.5840   H         2 PRO    0.0000
   574 HB3    -18.8820 154.7500   4.9050   H         2 PRO    0.0000
   575 HG2    -20.3410 153.0950   4.6730   H         2 PRO    0.0000
   576 HG3    -20.6020 153.7850   3.0540   H         2 PRO    0.0000
   577 HD2    -22.6580 154.5240   3.5920   H         2 PRO    0.0000
   578 HD3    -22.5260 153.4310   5.0030   H         2 PRO    0.0000
   579 N      -21.1300 157.9790   4.2500   N.am     16 ASN    0.0000
   580 CA     -21.0410 159.4000   3.9440   C.3      16 ASN    0.0000
   581 C      -22.2990 160.1770   4.3050   C.2      16 ASN    0.0000
   582 O      -22.3500 161.3880   4.0660   O.2      16 ASN    0.0000
   583 CB     -20.7160 159.6040   2.4600   C.3      16 ASN    0.0000
   584 CG     -19.3510 159.0660   2.0880   C.2      16 ASN    0.0000
   585 OD1    -18.4560 158.9780   2.9300   O.2      16 ASN    0.0000
   586 ND2    -19.1820 158.7060   0.8220   N.am     16 ASN    0.0000
   587 H      -21.7380 157.3950   3.6940   H        16 ASN    0.0000
   588 HA     -20.2170 159.8140   4.5250   H        16 ASN    0.0000
   589 HB2    -21.4690 159.0900   1.8630   H        16 ASN    0.0000
   590 HB3    -20.7510 160.6700   2.2330   H        16 ASN    0.0000
   591 HD21   -19.9440 158.7970   0.1650   H        16 ASN    0.0000
   592 HD22   -18.2920 158.3410   0.5150   H        16 ASN    0.0000
   593 N      -23.3110 159.5170   4.8690   N.am      8 LYS    0.0000
   594 CA     -24.5630 160.1600   5.2730   C.3       8 LYS    0.0000
   595 C      -25.2720 160.8280   4.0960   C.2       8 LYS    0.0000
   596 O      -25.9760 161.8260   4.2690   O.2       8 LYS    0.0000
   597 H      -23.2090 158.5240   5.0250   H         8 LYS    0.0000
   598 CB     -24.3470 161.1720   6.3800   C.3       8 LYS    0.0000
   599 CG     -24.2490 160.4600   7.7250   C.3       8 LYS    0.0000
   600 CD     -22.9560 159.6520   7.7780   C.3       8 LYS    0.0000
   601 CE     -22.8410 158.9670   9.1360   C.3       8 LYS    0.0000
   602 NZ     -21.6240 158.1430   9.1670   N.4       8 LYS    0.0000
   603 HA     -25.2240 159.3840   5.6590   H         8 LYS    0.0000
   604 HB2    -25.1860 161.8690   6.4010   H         8 LYS    0.0000
   605 HB3    -23.4250 161.7220   6.1930   H         8 LYS    0.0000
   606 HG2    -24.2500 161.1970   8.5270   H         8 LYS    0.0000
   607 HG3    -25.1010 159.7910   7.8450   H         8 LYS    0.0000
   608 HD2    -22.1060 160.3180   7.6340   H         8 LYS    0.0000
   609 HD3    -22.9660 158.8980   6.9910   H         8 LYS    0.0000
   610 HE2    -22.7880 159.7230   9.9200   H         8 LYS    0.0000
   611 HE3    -23.7130 158.3340   9.3000   H         8 LYS    0.0000
   612 HZ1    -21.7840 157.3290   9.7440   H         8 LYS    0.0000
   613 HZ2    -20.8610 158.6830   9.5500   H         8 LYS    0.0000
   614 HZ3    -21.3920 157.8500   8.2290   H         8 LYS    0.0000
   615 N      -25.1000 160.2810   2.8940   N.am     17 HIS    0.0000
   616 CA     -25.7750 160.8020   1.7110   C.3      17 HIS    0.0000
   617 C      -27.2390 160.3810   1.7410   C.2      17 HIS    0.0000
   618 O      -27.5460 159.1840   1.7710   O.2      17 HIS    0.0000
   619 CB     -25.1030 160.2950   0.4370   C.3      17 HIS    0.0000
   620 CG     -24.2150 161.3040  -0.2240   C.ar     17 HIS    0.0000
   621 ND1    -24.6350 162.0890  -1.2760   N.ar     17 HIS    0.0000
   622 CD2    -22.9270 161.6500   0.0120   C.ar     17 HIS    0.0000
   623 CE1    -23.6470 162.8810  -1.6550   C.ar     17 HIS    0.0000
   624 NE2    -22.5990 162.6330  -0.8900   N.ar     17 HIS    0.0000
   625 H      -24.4860 159.4850   2.7990   H        17 HIS    0.0000
   626 HA     -25.7220 161.8910   1.7270   H        17 HIS    0.0000
   627 HB2    -24.5010 159.4220   0.6910   H        17 HIS    0.0000
   628 HB3    -25.8760 159.9930  -0.2700   H        17 HIS    0.0000
   629 HD2    -22.2790 161.2310   0.7680   H        17 HIS    0.0000
   630 HE1    -23.6890 163.6070  -2.4540   H        17 HIS    0.0000
   631 HE2    -21.7020 163.0920  -0.9570   H        17 HIS    0.0000
   632 HD1    -25.5550 162.0630  -1.6930   H        17 HIS    0.0000
   633 N      -28.1400 161.3600   1.7190   N.am     16 ASN    0.0000
   634 CA     -29.5570 161.0550   1.5990   C.3      16 ASN    0.0000
   635 C      -29.8540 160.4100   0.2480   C.2      16 ASN    0.0000
   636 O      -29.1210 160.5790  -0.7320   O.2      16 ASN    0.0000
   637 CB     -30.3930 162.3230   1.7740   C.3      16 ASN    0.0000
   638 CG     -30.7010 162.6220   3.2290   C.2      16 ASN    0.0000
   639 OD1    -29.8790 163.1970   3.9440   O.2      16 ASN    0.0000
   640 ND2    -31.8890 162.2280   3.6780   N.am     16 ASN    0.0000
   641 H      -27.8380 162.3210   1.7860   H        16 ASN    0.0000
   642 HA     -29.8270 160.3510   2.3860   H        16 ASN    0.0000
   643 HB2    -29.8430 163.1650   1.3540   H        16 ASN    0.0000
   644 HB3    -31.3310 162.2060   1.2310   H        16 ASN    0.0000
   645 HD21   -32.5330 161.7580   3.0580   H        16 ASN    0.0000
   646 HD22   -32.1480 162.3990   4.6390   H        16 ASN    0.0000
   647 N      -30.9680 159.6800   0.2000   N.am      6 VAL    0.0000
   648 CA     -31.3670 158.9480  -0.9960   C.3       6 VAL    0.0000
   649 C      -32.7930 158.4340  -0.8320   C.2       6 VAL    0.0000
   650 O      -33.2060 158.0480   0.2680   O.2       6 VAL    0.0000
   651 CB     -30.3860 157.7940  -1.2850   C.3       6 VAL    0.0000
   652 CG1    -30.4100 156.7650  -0.1620   C.3       6 VAL    0.0000
   653 CG2    -30.7070 157.1460  -2.6110   C.3       6 VAL    0.0000
   654 H      -31.5560 159.6320   1.0200   H         6 VAL    0.0000
   655 HA     -31.3460 159.6360  -1.8420   H         6 VAL    0.0000
   656 HB     -29.3800 158.2100  -1.3440   H         6 VAL    0.0000
   657 HG11   -30.1760 157.2530   0.7840   H         6 VAL    0.0000
   658 HG12   -29.6700 155.9900  -0.3630   H         6 VAL    0.0000
   659 HG13   -31.4010 156.3140  -0.1030   H         6 VAL    0.0000
   660 HG21   -30.6840 157.8990  -3.3990   H         6 VAL    0.0000
   661 HG22   -31.7000 156.6980  -2.5650   H         6 VAL    0.0000
   662 HG23   -29.9690 156.3730  -2.8260   H         6 VAL    0.0000
   663 N      -33.5630 158.4520  -1.9170   N.am     12 GLU    0.0000
   664 CA     -34.9350 157.9660  -1.9210   C.3      12 GLU    0.0000
   665 C      -35.0530 156.7260  -2.7970   C.2      12 GLU    0.0000
   666 O      -34.4150 156.6320  -3.8510   O.2      12 GLU    0.0000
   667 H      -33.1780 158.8190  -2.7760   H        12 GLU    0.0000
   668 CB     -35.8960 159.0290  -2.4250   C.3      12 GLU    0.0000
   669 CG     -37.3060 158.4920  -2.3660   C.3      12 GLU    0.0000
   670 CD     -38.2800 159.5690  -2.8400   C.2      12 GLU    0.0000
   671 OE2    -39.5020 159.2620  -2.8810   O.co2    12 GLU    0.0000
   672 OE1    -37.7940 160.6870  -3.1560   O.co2    12 GLU    0.0000
   673 HA     -35.2130 157.7000  -0.9010   H        12 GLU    0.0000
   674 HB2    -35.8180 159.9170  -1.7980   H        12 GLU    0.0000
   675 HB3    -35.6470 159.2860  -3.4540   H        12 GLU    0.0000
   676 HG2    -37.3890 157.6180  -3.0120   H        12 GLU    0.0000
   677 HG3    -37.5460 158.2110  -1.3410   H        12 GLU    0.0000
   678 N      -35.8730 155.7740  -2.3550   N.am      6 VAL    0.0000
   679 CA     -36.1260 154.5750  -3.1430   C.3       6 VAL    0.0000
   680 C      -37.0190 154.9180  -4.3280   C.2       6 VAL    0.0000
   681 O      -37.9710 155.7010  -4.2090   O.2       6 VAL    0.0000
   682 CB     -36.7600 153.4860  -2.2590   C.3       6 VAL    0.0000
   683 CG1    -37.2120 152.3000  -3.0980   C.3       6 VAL    0.0000
   684 CG2    -35.7810 153.0410  -1.1830   C.3       6 VAL    0.0000
   685 H      -36.3270 155.8850  -1.4590   H         6 VAL    0.0000
   686 HA     -35.1740 154.2030  -3.5230   H         6 VAL    0.0000
   687 HB     -37.6360 153.9110  -1.7690   H         6 VAL    0.0000
   688 HG11   -37.9120 152.6400  -3.8620   H         6 VAL    0.0000
   689 HG12   -37.7020 151.5670  -2.4570   H         6 VAL    0.0000
   690 HG13   -36.3460 151.8420  -3.5770   H         6 VAL    0.0000
   691 HG21   -35.4700 153.9040  -0.5940   H         6 VAL    0.0000
   692 HG22   -34.9080 152.5880  -1.6520   H         6 VAL    0.0000
   693 HG23   -36.2630 152.3120  -0.5320   H         6 VAL    0.0000
   694 N      -36.6950 154.3590  -5.4940   N.am      5 LEU    0.0000
   695 CA     -37.6450 154.3290  -6.6010   C.3       5 LEU    0.0000
   696 C      -38.2540 152.9410  -6.7500   C.2       5 LEU    0.0000
   697 O      -39.4400 152.7390  -6.4690   O.2       5 LEU    0.0000
   698 CB     -36.9770 154.7600  -7.9070   C.3       5 LEU    0.0000
   699 CG     -36.6330 156.2430  -8.0030   C.3       5 LEU    0.0000
   700 CD1    -36.2730 156.6190  -9.4300   C.3       5 LEU    0.0000
   701 CD2    -37.7900 157.0900  -7.4950   C.3       5 LEU    0.0000
   702 H      -35.7790 153.9500  -5.6130   H         5 LEU    0.0000
   703 HA     -38.4480 155.0320  -6.3800   H         5 LEU    0.0000
   704 HB2    -36.0530 154.1920  -8.0160   H         5 LEU    0.0000
   705 HB3    -37.6390 154.5050  -8.7340   H         5 LEU    0.0000
   706 HG     -35.7660 156.4340  -7.3700   H         5 LEU    0.0000
   707 HD21   -37.7150 158.0950  -7.9100   H         5 LEU    0.0000
   708 HD22   -37.7510 157.1430  -6.4070   H         5 LEU    0.0000
   709 HD23   -38.7330 156.6390  -7.8030   H         5 LEU    0.0000
   710 HD11   -36.0310 157.6810  -9.4760   H         5 LEU    0.0000
   711 HD12   -37.1190 156.4100 -10.0850   H         5 LEU    0.0000
   712 HD13   -35.4110 156.0350  -9.7530   H         5 LEU    0.0000
   713 N      -37.4430 151.9810  -7.1870   N.am      1 GLY    0.0000
   714 CA     -37.9390 150.6730  -7.5610   C.3       1 GLY    0.0000
   715 C      -37.2180 149.5520  -6.8470   C.2       1 GLY    0.0000
   716 O      -35.9860 149.5460  -6.7710   O.2       1 GLY    0.0000
   717 H      -36.4540 152.1700  -7.2600   H         1 GLY    0.0000
   718 HA2    -37.8080 150.5440  -8.6350   H         1 GLY    0.0000
   719 HA3    -39.0020 150.6170  -7.3250   H         1 GLY    0.0000
   720 N      -37.9750 148.5980  -6.3200   N.am      3 ILE    0.0000
   721 CA     -37.4350 147.4950  -5.5350   C.3       3 ILE    0.0000
   722 C      -37.5950 146.2380  -6.3790   C.2       3 ILE    0.0000
   723 O      -38.6670 145.6230  -6.4080   O.2       3 ILE    0.0000
   724 CB     -38.1290 147.3640  -4.1740   C.3       3 ILE    0.0000
   725 CG1    -37.9490 148.6520  -3.3670   C.3       3 ILE    0.0000
   726 CG2    -37.5840 146.1710  -3.4080   C.3       3 ILE    0.0000
   727 CD1    -38.4590 148.5740  -1.9490   C.3       3 ILE    0.0000
   728 H      -38.9730 148.6380  -6.4700   H         3 ILE    0.0000
   729 HA     -36.3720 147.6720  -5.3700   H         3 ILE    0.0000
   730 HB     -39.1940 147.2080  -4.3430   H         3 ILE    0.0000
   731 HG12   -36.8850 148.8880  -3.3340   H         3 ILE    0.0000
   732 HG13   -38.4700 149.4600  -3.8800   H         3 ILE    0.0000
   733 HD11   -38.7270 149.5720  -1.6030   H         3 ILE    0.0000
   734 HD12   -37.6810 148.1630  -1.3050   H         3 ILE    0.0000
   735 HD13   -39.3370 147.9290  -1.9140   H         3 ILE    0.0000
   736 HG21   -37.3130 145.3820  -4.1090   H         3 ILE    0.0000
   737 HG22   -38.3460 145.8010  -2.7220   H         3 ILE    0.0000
   738 HG23   -36.7020 146.4740  -2.8430   H         3 ILE    0.0000
   739 N      -36.5300 145.8670  -7.0780   N.am      5 LEU    0.0000
   740 CA     -36.5320 144.7590  -8.0360   C.3       5 LEU    0.0000
   741 C      -36.0080 143.4780  -7.3950   C.2       5 LEU    0.0000
   742 O      -35.1140 142.8170  -7.9230   O.2       5 LEU    0.0000
   743 CB     -35.7080 145.1440  -9.2610   C.3       5 LEU    0.0000
   744 CG     -35.8860 144.3980 -10.5840   C.3       5 LEU    0.0000
   745 CD1    -37.3410 144.4150 -11.0210   C.3       5 LEU    0.0000
   746 CD2    -34.9960 145.0240 -11.6490   C.3       5 LEU    0.0000
   747 H      -35.6690 146.3770  -6.9420   H         5 LEU    0.0000
   748 HA     -37.5590 144.5860  -8.3560   H         5 LEU    0.0000
   749 HB2    -34.6610 145.0340  -8.9790   H         5 LEU    0.0000
   750 HB3    -35.8850 146.2020  -9.4550   H         5 LEU    0.0000
   751 HG     -35.5790 143.3620 -10.4410   H         5 LEU    0.0000
   752 HD11   -37.9590 143.9630 -10.2450   H         5 LEU    0.0000
   753 HD12   -37.4490 143.8490 -11.9470   H         5 LEU    0.0000
   754 HD13   -37.6590 145.4450 -11.1850   H         5 LEU    0.0000
   755 HD21   -35.1250 144.4900 -12.5910   H         5 LEU    0.0000
   756 HD22   -33.9540 144.9600 -11.3350   H         5 LEU    0.0000
   757 HD23   -35.2710 146.0700 -11.7840   H         5 LEU    0.0000
   758 N      -36.5530 143.1300  -6.2290   N.am     13 SER    0.0000
   759 CA     -36.1040 141.9540  -5.4890   C.3      13 SER    0.0000
   760 C      -36.2580 140.6790  -6.3110   C.2      13 SER    0.0000
   761 O      -37.3470 140.3750  -6.8070   O.2      13 SER    0.0000
   762 CB     -36.8870 141.8310  -4.1820   C.3      13 SER    0.0000
   763 OG     -36.8510 140.5030  -3.6880   O.3      13 SER    0.0000
   764 H      -37.2970 143.6960  -5.8470   H        13 SER    0.0000
   765 HA     -35.0490 142.0820  -5.2470   H        13 SER    0.0000
   766 HB2    -37.9240 142.1160  -4.3600   H        13 SER    0.0000
   767 HB3    -36.4530 142.5010  -3.4400   H        13 SER    0.0000
   768 HG     -37.7270 140.1150  -3.7500   H        13 SER    0.0000
   769 N      -35.1670 139.9290  -6.4330   N.am      7 ASP    0.0000
   770 CA     -35.0820 138.7270  -7.2880   C.3       7 ASP    0.0000
   771 C      -35.2690 139.1910  -8.7370   C.2       7 ASP    0.0000
   772 O      -34.7820 140.2690  -9.1080   O.2       7 ASP    0.0000
   773 CB     -36.0630 137.6680  -6.8100   C.3       7 ASP    0.0000
   774 CG     -35.6980 136.2770  -7.2870   C.2       7 ASP    0.0000
   775 OD1    -35.6270 136.0710  -8.5170   O.co2     7 ASP    0.0000
   776 OD2    -35.4870 135.3890  -6.4340   O.co2     7 ASP    0.0000
   777 H      -34.3460 140.1970  -5.9090   H         7 ASP    0.0000
   778 HA     -34.0760 138.3190  -7.1940   H         7 ASP    0.0000
   779 HB2    -36.0760 137.6710  -5.7200   H         7 ASP    0.0000
   780 HB3    -37.0590 137.9170  -7.1760   H         7 ASP    0.0000
   781 N      -35.9490 138.4160  -9.5810   N.am      7 ASP    0.0000
   782 CA     -36.3170 138.8960 -10.9060   C.3       7 ASP    0.0000
   783 C      -37.6400 139.6490 -10.9120   C.2       7 ASP    0.0000
   784 O      -37.8740 140.4600 -11.8150   O.2       7 ASP    0.0000
   785 H      -36.2130 137.4830  -9.2980   H         7 ASP    0.0000
   786 CB     -36.4040 137.7370 -11.8870   C.3       7 ASP    0.0000
   787 CG     -35.0350 137.0770 -12.0320   C.2       7 ASP    0.0000
   788 OD2    -35.0140 135.8420 -12.2810   O.co2     7 ASP    0.0000
   789 OD1    -34.0220 137.8150 -11.8930   O.co2     7 ASP    0.0000
   790 HA     -35.5370 139.5750 -11.2500   H         7 ASP    0.0000
   791 HB2    -36.7310 138.1090 -12.8580   H         7 ASP    0.0000
   792 HB3    -37.1220 137.0040 -11.5190   H         7 ASP    0.0000
   793 N      -38.5030 139.3970  -9.9310   N.am      6 VAL    0.0000
   794 CA     -39.7790 140.0930  -9.8350   C.3       6 VAL    0.0000
   795 C      -39.5610 141.4950  -9.2680   C.2       6 VAL    0.0000
   796 O      -38.5190 141.8090  -8.6880   O.2       6 VAL    0.0000
   797 CB     -40.7640 139.2760  -8.9740   C.3       6 VAL    0.0000
   798 CG1    -40.2750 139.1880  -7.5300   C.3       6 VAL    0.0000
   799 CG2    -42.1910 139.8210  -9.0570   C.3       6 VAL    0.0000
   800 H      -38.2670 138.7050  -9.2340   H         6 VAL    0.0000
   801 HA     -40.1950 140.1880 -10.8380   H         6 VAL    0.0000
   802 HB     -40.7800 138.2620  -9.3730   H         6 VAL    0.0000
   803 HG11   -40.9850 138.6080  -6.9400   H         6 VAL    0.0000
   804 HG12   -40.1920 140.1920  -7.1130   H         6 VAL    0.0000
   805 HG13   -39.2990 138.7020  -7.5060   H         6 VAL    0.0000
   806 HG21   -42.9010 139.0050  -8.9230   H         6 VAL    0.0000
   807 HG22   -42.3480 140.2820 -10.0320   H         6 VAL    0.0000
   808 HG23   -42.3420 140.5650  -8.2750   H         6 VAL    0.0000
   809 N      -40.5470 142.3630  -9.4720   N.am     12 GLU    0.0000
   810 CA     -40.6170 143.6500  -8.7940   C.3      12 GLU    0.0000
   811 C      -41.7710 143.6150  -7.8010   C.2      12 GLU    0.0000
   812 O      -42.8810 143.2000  -8.1510   O.2      12 GLU    0.0000
   813 CB     -40.8040 144.7910  -9.7960   C.3      12 GLU    0.0000
   814 CG     -40.2720 146.1310  -9.3180   C.3      12 GLU    0.0000
   815 CD     -41.2890 146.9090  -8.5110   C.2      12 GLU    0.0000
   816 OE1    -42.4120 147.1200  -9.0160   O.co2    12 GLU    0.0000
   817 OE2    -40.9650 147.3120  -7.3750   O.co2    12 GLU    0.0000
   818 H      -41.2780 142.1200 -10.1250   H        12 GLU    0.0000
   819 HA     -39.6880 143.8110  -8.2480   H        12 GLU    0.0000
   820 HB2    -40.2850 144.5260 -10.7170   H        12 GLU    0.0000
   821 HB3    -41.8670 144.8950 -10.0120   H        12 GLU    0.0000
   822 HG2    -39.9900 146.7240 -10.1880   H        12 GLU    0.0000
   823 HG3    -39.3880 145.9610  -8.7030   H        12 GLU    0.0000
   824 N      -41.5090 144.0460  -6.5680   N.am     11 THR    0.0000
   825 CA     -42.5420 144.1790  -5.5500   C.3      11 THR    0.0000
   826 C      -42.4200 145.5360  -4.8720   C.2      11 THR    0.0000
   827 O      -41.3360 146.1240  -4.8120   O.2      11 THR    0.0000
   828 CB     -42.4630 143.0630  -4.4880   C.3      11 THR    0.0000
   829 OG1    -41.2710 143.2200  -3.7080   O.3      11 THR    0.0000
   830 CG2    -42.4710 141.6830  -5.1380   C.3      11 THR    0.0000
   831 H      -40.5580 144.2900  -6.3300   H        11 THR    0.0000
   832 HA     -43.5150 144.1230  -6.0370   H        11 THR    0.0000
   833 HB     -43.3270 143.1450  -3.8280   H        11 THR    0.0000
   834 HG1    -41.4550 142.9940  -2.7930   H        11 THR    0.0000
   835 HG21   -42.4140 140.9160  -4.3650   H        11 THR    0.0000
   836 HG22   -41.6130 141.5910  -5.8040   H        11 THR    0.0000
   837 HG23   -43.3910 141.5560  -5.7090   H        11 THR    0.0000
   838 N      -43.5490 146.0270  -4.3570   N.am      7 ASP    0.0000
   839 CA     -43.5620 147.3540  -3.7490   C.3       7 ASP    0.0000
   840 C      -42.8440 147.3530  -2.4050   C.2       7 ASP    0.0000
   841 O      -42.0590 148.2630  -2.1140   O.2       7 ASP    0.0000
   842 CB     -45.0010 147.8430  -3.5930   C.3       7 ASP    0.0000
   843 CG     -45.6360 148.2150  -4.9200   C.2       7 ASP    0.0000
   844 OD1    -45.1880 147.6940  -5.9630   O.co2     7 ASP    0.0000
   845 OD2    -46.5850 149.0280  -4.9190   O.co2     7 ASP    0.0000
   846 H      -44.3970 145.4790  -4.3880   H         7 ASP    0.0000
   847 HA     -43.0390 148.0400  -4.4150   H         7 ASP    0.0000
   848 HB2    -45.5910 147.0500  -3.1330   H         7 ASP    0.0000
   849 HB3    -45.0100 148.7150  -2.9400   H         7 ASP    0.0000
   850 N      -43.0990 146.3450  -1.5730   N.am     11 THR    0.0000
   851 CA     -42.3820 146.1540  -0.3210   C.3      11 THR    0.0000
   852 C      -41.8840 144.7160  -0.2520   C.2      11 THR    0.0000
   853 O      -42.4040 143.8260  -0.9280   O.2      11 THR    0.0000
   854 CB     -43.2570 146.4630   0.9090   C.3      11 THR    0.0000
   855 OG1    -44.1200 145.3520   1.1790   O.3      11 THR    0.0000
   856 CG2    -44.0970 147.7140   0.6850   C.3      11 THR    0.0000
   857 H      -43.8210 145.6840  -1.8220   H        11 THR    0.0000
   858 HA     -41.5200 146.8210  -0.3100   H        11 THR    0.0000
   859 HB     -42.6090 146.6230   1.7710   H        11 THR    0.0000
   860 HG1    -43.5920 144.5630   1.3200   H        11 THR    0.0000
   861 HG21   -44.7040 147.9080   1.5690   H        11 THR    0.0000
   862 HG22   -43.4400 148.5640   0.5020   H        11 THR    0.0000
   863 HG23   -44.7470 147.5650  -0.1770   H        11 THR    0.0000
   864 N      -40.8640 144.4950   0.5770   N.am      6 VAL    0.0000
   865 CA     -40.2690 143.1700   0.7120   C.3       6 VAL    0.0000
   866 C      -39.5940 143.0740   2.0730   C.2       6 VAL    0.0000
   867 O      -39.0900 144.0660   2.6070   O.2       6 VAL    0.0000
   868 CB     -39.2870 142.8820  -0.4540   C.3       6 VAL    0.0000
   869 CG1    -38.0960 143.8130  -0.3990   C.3       6 VAL    0.0000
   870 CG2    -38.8400 141.4320  -0.4370   C.3       6 VAL    0.0000
   871 H      -40.4950 145.2610   1.1230   H         6 VAL    0.0000
   872 HA     -41.0690 142.4310   0.6750   H         6 VAL    0.0000
   873 HB     -39.8130 143.0620  -1.3910   H         6 VAL    0.0000
   874 HG21   -39.7140 140.7810  -0.4770   H         6 VAL    0.0000
   875 HG22   -38.2030 141.2380  -1.3000   H         6 VAL    0.0000
   876 HG23   -38.2820 141.2350   0.4780   H         6 VAL    0.0000
   877 HG11   -38.4410 144.8470  -0.4120   H         6 VAL    0.0000
   878 HG12   -37.5340 143.6300   0.5170   H         6 VAL    0.0000
   879 HG13   -37.4540 143.6330  -1.2610   H         6 VAL    0.0000
   880 N      -39.5930 141.8720   2.6310   N.am     18 ALA    0.0000
   881 CA     -39.1610 141.5620   3.9840   C.3      18 ALA    0.0000
   882 C      -37.7140 141.0810   3.9800   C.2      18 ALA    0.0000
   883 O      -37.1260 140.8590   2.9180   O.2      18 ALA    0.0000
   884 CB     -40.0910 140.5000   4.5810   C.3      18 ALA    0.0000
   885 H      -39.9220 141.1020   2.0660   H        18 ALA    0.0000
   886 HA     -39.2280 142.4660   4.5890   H        18 ALA    0.0000
   887 HB1    -40.9020 140.2920   3.8830   H        18 ALA    0.0000
   888 HB2    -40.5060 140.8670   5.5200   H        18 ALA    0.0000
   889 HB3    -39.5270 139.5860   4.7660   H        18 ALA    0.0000
   890 N      -37.0900 140.9230   5.1540   N.am      2 PRO    0.0000
   891 CA     -35.7040 140.4370   5.1840   C.3       2 PRO    0.0000
   892 C      -35.5470 139.0740   4.5260   C.2       2 PRO    0.0000
   893 O      -36.4950 138.2940   4.4000   O.2       2 PRO    0.0000
   894 CB     -35.3790 140.3670   6.6820   C.3       2 PRO    0.0000
   895 CG     -36.2960 141.3310   7.3120   C.3       2 PRO    0.0000
   896 CD     -37.5550 141.3050   6.5030   C.3       2 PRO    0.0000
   897 HA     -35.0490 141.1600   4.6970   H         2 PRO    0.0000
   898 HB2    -35.5550 139.3620   7.0660   H         2 PRO    0.0000
   899 HB3    -34.3440 140.6610   6.8570   H         2 PRO    0.0000
   900 HG2    -36.5030 141.0370   8.3410   H         2 PRO    0.0000
   901 HG3    -35.8600 142.3300   7.2900   H         2 PRO    0.0000
   902 HD2    -38.2560 140.5690   6.8960   H         2 PRO    0.0000
   903 HD3    -38.0140 142.2930   6.4820   H         2 PRO    0.0000
   904 N      -34.3130 138.7910   4.1110   N.am      1 GLY    0.0000
   905 CA     -33.9830 137.5190   3.4990   C.3       1 GLY    0.0000
   906 C      -33.7420 137.5800   2.0030   C.2       1 GLY    0.0000
   907 O      -32.7550 137.0280   1.5080   O.2       1 GLY    0.0000
   908 H      -33.5860 139.4830   4.2260   H         1 GLY    0.0000
   909 HA2    -34.8070 136.8300   3.6820   H         1 GLY    0.0000
   910 HA3    -33.0870 137.1250   3.9790   H         1 GLY    0.0000
   911 N      -34.6350 138.2430   1.2720   N.am     12 GLU    0.0000
   912 CA     -34.5840 138.2340  -0.1820   C.3      12 GLU    0.0000
   913 C      -33.3470 138.9760  -0.6980   C.2      12 GLU    0.0000
   914 O      -32.6360 139.6630   0.0420   O.2      12 GLU    0.0000
   915 CB     -35.8600 138.8450  -0.7620   C.3      12 GLU    0.0000
   916 CG     -37.0950 137.9700  -0.5770   C.3      12 GLU    0.0000
   917 CD     -38.1870 138.2670  -1.5880   C.2      12 GLU    0.0000
   918 OE1    -39.3630 138.3790  -1.1810   O.co2    12 GLU    0.0000
   919 OE2    -37.8680 138.3900  -2.7890   O.co2    12 GLU    0.0000
   920 H      -35.3650 138.7640   1.7370   H        12 GLU    0.0000
   921 HA     -34.5220 137.1980  -0.5140   H        12 GLU    0.0000
   922 HB2    -36.0380 139.8010  -0.2700   H        12 GLU    0.0000
   923 HB3    -35.7120 139.0210  -1.8270   H        12 GLU    0.0000
   924 HG2    -37.4930 138.1380   0.4240   H        12 GLU    0.0000
   925 HG3    -36.8030 136.9240  -0.6700   H        12 GLU    0.0000
   926 N      -33.1010 138.8250  -1.9980   N.am     16 ASN    0.0000
   927 CA     -31.9310 139.3790  -2.6810   C.3      16 ASN    0.0000
   928 C      -32.4150 140.5170  -3.5740   C.2      16 ASN    0.0000
   929 O      -32.9420 140.2820  -4.6650   O.2      16 ASN    0.0000
   930 CB     -31.2130 138.3000  -3.4850   C.3      16 ASN    0.0000
   931 CG     -30.1490 137.5860  -2.6790   C.2      16 ASN    0.0000
   932 OD1    -29.2960 138.2220  -2.0620   O.2      16 ASN    0.0000
   933 ND2    -30.2020 136.2580  -2.6680   N.am     16 ASN    0.0000
   934 H      -33.7630 138.2950  -2.5470   H        16 ASN    0.0000
   935 HA     -31.2440 139.7810  -1.9360   H        16 ASN    0.0000
   936 HB2    -31.9470 137.5680  -3.8200   H        16 ASN    0.0000
   937 HB3    -30.7480 138.7590  -4.3570   H        16 ASN    0.0000
   938 HD21   -30.9240 135.7770  -3.1850   H        16 ASN    0.0000
   939 HD22   -29.5200 135.7300  -2.1420   H        16 ASN    0.0000
   940 N      -32.2280 141.7490  -3.1090   N.am      5 LEU    0.0000
   941 CA     -32.8460 142.9220  -3.7130   C.3       5 LEU    0.0000
   942 C      -31.8850 143.6600  -4.6380   C.2       5 LEU    0.0000
   943 O      -30.7140 143.8650  -4.3050   O.2       5 LEU    0.0000
   944 CB     -33.3410 143.8950  -2.6370   C.3       5 LEU    0.0000
   945 CG     -34.5250 143.6000  -1.7040   C.3       5 LEU    0.0000
   946 CD1    -34.4460 142.2440  -1.0150   C.3       5 LEU    0.0000
   947 CD2    -34.6300 144.7070  -0.6660   C.3       5 LEU    0.0000
   948 H      -31.6330 141.8770  -2.3030   H         5 LEU    0.0000
   949 HA     -33.7040 142.5940  -4.3000   H         5 LEU    0.0000
   950 HB2    -32.4870 144.0770  -1.9850   H         5 LEU    0.0000
   951 HB3    -33.5610 144.8370  -3.1390   H         5 LEU    0.0000
   952 HG     -35.4350 143.6170  -2.3040   H         5 LEU    0.0000
   953 HD11   -35.1770 142.2030  -0.2080   H         5 LEU    0.0000
   954 HD12   -33.4460 142.1020  -0.6060   H         5 LEU    0.0000
   955 HD13   -34.6580 141.4560  -1.7380   H         5 LEU    0.0000
   956 HD21   -35.4690 144.5030   0.0000   H         5 LEU    0.0000
   957 HD22   -34.7880 145.6620  -1.1680   H         5 LEU    0.0000
   958 HD23   -33.7080 144.7500  -0.0860   H         5 LEU    0.0000
   959 N      -32.3930 144.0540  -5.8020   N.am      8 LYS    0.0000
   960 CA     -31.8460 145.1630  -6.5720   C.3       8 LYS    0.0000
   961 C      -32.7430 146.3750  -6.3500   C.2       8 LYS    0.0000
   962 O      -33.9710 146.2580  -6.4110   O.2       8 LYS    0.0000
   963 CB     -31.7610 144.8260  -8.0620   C.3       8 LYS    0.0000
   964 CG     -30.9380 143.5890  -8.3910   C.3       8 LYS    0.0000
   965 CD     -30.9850 143.2870  -9.8850   C.3       8 LYS    0.0000
   966 CE     -30.3360 141.9510 -10.2100   C.3       8 LYS    0.0000
   967 NZ     -30.2600 141.7210 -11.6780   N.4       8 LYS    0.0000
   968 H      -33.1950 143.5620  -6.1690   H         8 LYS    0.0000
   969 HA     -30.8460 145.3910  -6.2030   H         8 LYS    0.0000
   970 HB2    -32.7740 144.6670  -8.4320   H         8 LYS    0.0000
   971 HB3    -31.3300 145.6790  -8.5860   H         8 LYS    0.0000
   972 HG2    -29.9030 143.7590  -8.0940   H         8 LYS    0.0000
   973 HG3    -31.3350 142.7370  -7.8400   H         8 LYS    0.0000
   974 HD2    -30.4570 144.0760 -10.4210   H         8 LYS    0.0000
   975 HD3    -32.0250 143.2670 -10.2120   H         8 LYS    0.0000
   976 HE2    -29.3270 141.9380  -9.7980   H         8 LYS    0.0000
   977 HE3    -30.9180 141.1510  -9.7530   H         8 LYS    0.0000
   978 HZ1    -29.8250 140.8270 -11.8570   H         8 LYS    0.0000
   979 HZ2    -29.7120 142.4540 -12.1050   H         8 LYS    0.0000
   980 HZ3    -31.1920 141.7260 -12.0680   H         8 LYS    0.0000
   981 N      -32.1380 147.5330  -6.0950   N.am      3 ILE    0.0000
   982 CA     -32.8750 148.7140  -5.6530   C.3       3 ILE    0.0000
   983 C      -32.4870 149.8970  -6.5270   C.2       3 ILE    0.0000
   984 O      -31.3040 150.2440  -6.6180   O.2       3 ILE    0.0000
   985 CB     -32.6150 149.0370  -4.1720   C.3       3 ILE    0.0000
   986 CG1    -32.7960 147.7860  -3.3090   C.3       3 ILE    0.0000
   987 CG2    -33.5370 150.1550  -3.7000   C.3       3 ILE    0.0000
   988 CD1    -34.2130 147.5730  -2.8260   C.3       3 ILE    0.0000
   989 H      -31.1370 147.5970  -6.2110   H         3 ILE    0.0000
   990 HA     -33.9400 148.5240  -5.7830   H         3 ILE    0.0000
   991 HB     -31.5840 149.3770  -4.0710   H         3 ILE    0.0000
   992 HG12   -32.1460 147.8730  -2.4380   H         3 ILE    0.0000
   993 HG13   -32.4890 146.9150  -3.8880   H         3 ILE    0.0000
   994 HG21   -33.1850 151.1080  -4.0950   H         3 ILE    0.0000
   995 HG22   -33.5360 150.1910  -2.6110   H         3 ILE    0.0000
   996 HG23   -34.5490 149.9660  -4.0570   H         3 ILE    0.0000
   997 HD11   -34.3400 146.5350  -2.5180   H         3 ILE    0.0000
   998 HD12   -34.4100 148.2300  -1.9790   H         3 ILE    0.0000
   999 HD13   -34.9100 147.8010  -3.6330   H         3 ILE    0.0000
  1000 N      -33.4820 150.5160  -7.1590   N.am      4 ARG    0.0000
  1001 CA     -33.2790 151.7460  -7.9120   C.3       4 ARG    0.0000
  1002 C      -33.2710 152.9450  -6.9690   C.2       4 ARG    0.0000
  1003 O      -34.1980 153.1290  -6.1740   O.2       4 ARG    0.0000
  1004 CB     -34.3750 151.8990  -8.9660   C.3       4 ARG    0.0000
  1005 CG     -34.1400 153.0090  -9.9730   C.3       4 ARG    0.0000
  1006 CD     -34.9050 152.7700 -11.2710   C.3       4 ARG    0.0000
  1007 NE     -34.9210 151.3640 -11.6760   N.pl3     4 ARG    0.0000
  1008 CZ     -35.9680 150.5520 -11.5480   C.cat     4 ARG    0.0000
  1009 NH1    -37.0990 151.0020 -11.0230   N.pl3     4 ARG    0.0000
  1010 NH2    -35.8820 149.2890 -11.9440   N.pl3     4 ARG    0.0000
  1011 H      -34.4100 150.1190  -7.1150   H         4 ARG    0.0000
  1012 HA     -32.3140 151.6920  -8.4160   H         4 ARG    0.0000
  1013 HB2    -34.4550 150.9580  -9.5110   H         4 ARG    0.0000
  1014 HB3    -35.3210 152.0860  -8.4580   H         4 ARG    0.0000
  1015 HG2    -33.0750 153.0620 -10.1970   H         4 ARG    0.0000
  1016 HG3    -34.4610 153.9560  -9.5400   H         4 ARG    0.0000
  1017 HD2    -35.9340 153.1030 -11.1340   H         4 ARG    0.0000
  1018 HD3    -34.4460 153.3600 -12.0640   H         4 ARG    0.0000
  1019 HE     -34.0780 150.9830 -12.0810   H         4 ARG    0.0000
  1020 HH11   -37.1680 151.9630 -10.7200   H         4 ARG    0.0000
  1021 HH12   -37.8920 150.3840 -10.9260   H         4 ARG    0.0000
  1022 HH21   -35.0220 148.9430 -12.3440   H         4 ARG    0.0000
  1023 HH22   -36.6770 148.6740 -11.8460   H         4 ARG    0.0000
  1024 N      -32.2230 153.7600  -7.0620   N.am      5 LEU    0.0000
  1025 CA     -32.0030 154.8860  -6.1630   C.3       5 LEU    0.0000
  1026 C      -32.1770 156.1960  -6.9210   C.2       5 LEU    0.0000
  1027 O      -31.5410 156.4020  -7.9610   O.2       5 LEU    0.0000
  1028 CB     -30.6100 154.8210  -5.5310   C.3       5 LEU    0.0000
  1029 CG     -30.4600 154.0510  -4.2130   C.3       5 LEU    0.0000
  1030 CD1    -31.0160 152.6350  -4.2980   C.3       5 LEU    0.0000
  1031 CD2    -29.0090 154.0440  -3.7530   C.3       5 LEU    0.0000
  1032 H      -31.5460 153.5900  -7.7920   H         5 LEU    0.0000
  1033 HA     -32.7470 154.8450  -5.3670   H         5 LEU    0.0000
  1034 HB2    -29.9440 154.3550  -6.2580   H         5 LEU    0.0000
  1035 HB3    -30.2670 155.8420  -5.3660   H         5 LEU    0.0000
  1036 HG     -31.0380 154.5830  -3.4580   H         5 LEU    0.0000
  1037 HD11   -32.0540 152.6710  -4.6290   H         5 LEU    0.0000
  1038 HD12   -30.9640 152.1650  -3.3160   H         5 LEU    0.0000
  1039 HD13   -30.4280 152.0560  -5.0100   H         5 LEU    0.0000
  1040 HD21   -28.9270 153.4920  -2.8170   H         5 LEU    0.0000
  1041 HD22   -28.3900 153.5650  -4.5120   H         5 LEU    0.0000
  1042 HD23   -28.6710 155.0690  -3.6020   H         5 LEU    0.0000
  1043 N      -33.0340 157.0760  -6.4030   N.am      8 LYS    0.0000
  1044 CA     -33.2040 158.4150  -6.9560   C.3       8 LYS    0.0000
  1045 C      -32.3570 159.4760  -6.2650   C.2       8 LYS    0.0000
  1046 O      -32.4130 160.6430  -6.6650   O.2       8 LYS    0.0000
  1047 H      -33.5840 156.8060  -5.6000   H         8 LYS    0.0000
  1048 CB     -34.6640 158.8420  -6.8790   C.3       8 LYS    0.0000
  1049 CG     -34.9250 159.9440  -7.9000   C.3       8 LYS    0.0000
  1050 CD     -34.5310 161.2920  -7.3060   C.3       8 LYS    0.0000
  1051 CE     -34.8360 162.3990  -8.3090   C.3       8 LYS    0.0000
  1052 NZ     -36.2820 162.4370  -8.5720   N.4       8 LYS    0.0000
  1053 HA     -32.9160 158.3850  -8.0070   H         8 LYS    0.0000
  1054 HB2    -35.3050 157.9870  -7.0950   H         8 LYS    0.0000
  1055 HB3    -34.8820 159.2150  -5.8780   H         8 LYS    0.0000
  1056 HG2    -34.3340 159.7560  -8.7970   H         8 LYS    0.0000
  1057 HG3    -35.9840 159.9560  -8.1590   H         8 LYS    0.0000
  1058 HD2    -33.4650 161.2910  -7.0790   H         8 LYS    0.0000
  1059 HD3    -35.0980 161.4650  -6.3900   H         8 LYS    0.0000
  1060 HE2    -34.3030 162.2030  -9.2390   H         8 LYS    0.0000
  1061 HE3    -34.5150 163.3570  -7.9020   H         8 LYS    0.0000
  1062 HZ1    -36.4850 163.1700  -9.2370   H         8 LYS    0.0000
  1063 HZ2    -36.5790 161.5490  -8.9500   H         8 LYS    0.0000
  1064 HZ3    -36.7760 162.6180  -7.7100   H         8 LYS    0.0000
  1065 N      -31.5870 159.1150  -5.2450   N.am      1 GLY    0.0000
  1066 CA     -30.7860 160.0940  -4.5440   C.3       1 GLY    0.0000
  1067 C      -29.5940 160.5600  -5.3570   C.2       1 GLY    0.0000
  1068 O      -29.3040 160.0710  -6.4500   O.2       1 GLY    0.0000
  1069 H      -31.5610 158.1480  -4.9560   H         1 GLY    0.0000
  1070 HA2    -31.4110 160.9570  -4.3140   H         1 GLY    0.0000
  1071 HA3    -30.4290 159.6570  -3.6110   H         1 GLY    0.0000
  1072 N      -28.8820 161.5360  -4.7940   N.am      3 ILE    0.0000
  1073 CA     -27.6850 162.0890  -5.4200   C.3       3 ILE    0.0000
  1074 C      -26.5070 161.1690  -5.1320   C.2       3 ILE    0.0000
  1075 O      -25.4640 161.6080  -4.6340   O.2       3 ILE    0.0000
  1076 H      -29.1810 161.9060  -3.9030   H         3 ILE    0.0000
  1077 CB     -27.3910 163.4970  -4.9280   C.3       3 ILE    0.0000
  1078 CG1    -27.1210 163.4570  -3.4280   C.3       3 ILE    0.0000
  1079 CG2    -28.5820 164.4080  -5.2070   C.3       3 ILE    0.0000
  1080 CD1    -26.5840 164.8100  -2.9720   C.3       3 ILE    0.0000
  1081 HA     -27.8420 162.1240  -6.4980   H         3 ILE    0.0000
  1082 HB     -26.5120 163.8830  -5.4440   H         3 ILE    0.0000
  1083 HG12   -28.0480 163.2370  -2.8980   H         3 ILE    0.0000
  1084 HG13   -26.3860 162.6820  -3.2110   H         3 ILE    0.0000
  1085 HG21   -28.7750 164.4360  -6.2800   H         3 ILE    0.0000
  1086 HG22   -28.3600 165.4140  -4.8510   H         3 ILE    0.0000
  1087 HG23   -29.4610 164.0240  -4.6900   H         3 ILE    0.0000
  1088 HD11   -26.3920 164.7820  -1.9000   H         3 ILE    0.0000
  1089 HD12   -25.6580 165.0300  -3.5020   H         3 ILE    0.0000
  1090 HD13   -27.3200 165.5850  -3.1890   H         3 ILE    0.0000
  1091 N      -26.6720 159.8860  -5.4450   N.am     12 GLU    0.0000
  1092 CA     -25.6200 158.8830  -5.3050   C.3      12 GLU    0.0000
  1093 C      -25.6900 157.9690  -6.5210   C.2      12 GLU    0.0000
  1094 O      -26.6300 157.1790  -6.6460   O.2      12 GLU    0.0000
  1095 H      -27.5710 159.5910  -5.7980   H        12 GLU    0.0000
  1096 CB     -25.7790 158.0760  -4.0360   C.3      12 GLU    0.0000
  1097 CG     -25.5350 158.9490  -2.8290   C.3      12 GLU    0.0000
  1098 CD     -26.8310 159.6570  -2.4430   C.2      12 GLU    0.0000
  1099 OE1    -27.9060 159.0200  -2.6040   O.co2    12 GLU    0.0000
  1100 OE2    -26.7350 160.8290  -1.9900   O.co2    12 GLU    0.0000
  1101 HA     -24.6510 159.3830  -5.2900   H        12 GLU    0.0000
  1102 HB2    -26.7900 157.6720  -3.9900   H        12 GLU    0.0000
  1103 HB3    -25.0620 157.2540  -4.0390   H        12 GLU    0.0000
  1104 HG2    -25.1970 158.3320  -1.9960   H        12 GLU    0.0000
  1105 HG3    -24.7720 159.6910  -3.0650   H        12 GLU    0.0000
  1106 N      -24.7090 158.0770  -7.4170   N.am     12 GLU    0.0000
  1107 CA     -24.7050 157.2480  -8.6170   C.3      12 GLU    0.0000
  1108 C      -23.3800 156.5120  -8.7760   C.2      12 GLU    0.0000
  1109 O      -23.3590 155.2810  -8.8710   O.2      12 GLU    0.0000
  1110 H      -23.9620 158.7390  -7.2640   H        12 GLU    0.0000
  1111 CB     -24.9670 158.0880  -9.8530   C.3      12 GLU    0.0000
  1112 CG     -26.3680 158.6490  -9.8080   C.3      12 GLU    0.0000
  1113 CD     -26.6060 159.5240 -11.0360   C.2      12 GLU    0.0000
  1114 OE1    -25.6180 159.7450 -11.7860   O.co2    12 GLU    0.0000
  1115 OE2    -27.7730 159.9630 -11.2130   O.co2    12 GLU    0.0000
  1116 HA     -25.5010 156.5090  -8.5280   H        12 GLU    0.0000
  1117 HB2    -24.2500 158.9080  -9.8910   H        12 GLU    0.0000
  1118 HB3    -24.8540 157.4680 -10.7430   H        12 GLU    0.0000
  1119 HG2    -26.4900 159.2480  -8.9060   H        12 GLU    0.0000
  1120 HG3    -27.0870 157.8300  -9.8000   H        12 GLU    0.0000
  1121 N      -22.2710 157.2500  -8.8070   N.am     12 GLU    0.0000
  1122 CA     -20.9540 156.6670  -9.0300   C.3      12 GLU    0.0000
  1123 C      -20.0670 156.7670  -7.7950   C.2      12 GLU    0.0000
  1124 O      -18.8400 156.6680  -7.9040   O.2      12 GLU    0.0000
  1125 H      -22.3460 158.2480  -8.6710   H        12 GLU    0.0000
  1126 CB     -20.2650 157.3290 -10.2070   C.3      12 GLU    0.0000
  1127 CG     -21.0770 157.1220 -11.4630   C.3      12 GLU    0.0000
  1128 CD     -20.3520 157.7580 -12.6470   C.2      12 GLU    0.0000
  1129 OE2    -20.8680 157.6090 -13.7870   O.co2    12 GLU    0.0000
  1130 OE1    -19.2880 158.3870 -12.4010   O.co2    12 GLU    0.0000
  1131 HA     -21.0870 155.6110  -9.2660   H        12 GLU    0.0000
  1132 HB2    -19.2770 156.8890 -10.3390   H        12 GLU    0.0000
  1133 HB3    -20.1640 158.3960 -10.0130   H        12 GLU    0.0000
  1134 HG2    -21.2010 156.0550 -11.6440   H        12 GLU    0.0000
  1135 HG3    -22.0550 157.5870 -11.3440   H        12 GLU    0.0000
  1136 N      -20.6650 156.9560  -6.6190   N.am     12 GLU    0.0000
  1137 CA     -19.9240 157.2090  -5.3900   C.3      12 GLU    0.0000
  1138 C      -20.4080 156.3060  -4.2600   C.2      12 GLU    0.0000
  1139 O      -20.3340 156.6730  -3.0850   O.2      12 GLU    0.0000
  1140 CB     -20.0170 158.6830  -4.9890   C.3      12 GLU    0.0000
  1141 CG     -18.9150 159.1880  -4.0410   C.3      12 GLU    0.0000
  1142 CD     -17.6100 158.4030  -4.1280   C.2      12 GLU    0.0000
  1143 OE1    -17.0820 158.2070  -5.2460   O.co2    12 GLU    0.0000
  1144 OE2    -17.1140 157.9710  -3.0650   O.co2    12 GLU    0.0000
  1145 H      -21.6740 156.9220  -6.5780   H        12 GLU    0.0000
  1146 HA     -18.8750 156.9780  -5.5770   H        12 GLU    0.0000
  1147 HB2    -19.9750 159.2810  -5.8990   H        12 GLU    0.0000
  1148 HB3    -20.9830 158.8490  -4.5130   H        12 GLU    0.0000
  1149 HG2    -19.2870 159.1220  -3.0180   H        12 GLU    0.0000
  1150 HG3    -18.7090 160.2340  -4.2700   H        12 GLU    0.0000
  1151 N      -20.9000 155.1190  -4.5960   N.am      3 ILE    0.0000
  1152 CA     -21.2530 154.1080  -3.6070   C.3       3 ILE    0.0000
  1153 C      -20.3430 152.9100  -3.8300   C.2       3 ILE    0.0000
  1154 O      -20.2780 152.3740  -4.9410   O.2       3 ILE    0.0000
  1155 H      -21.0350 154.9090  -5.5750   H         3 ILE    0.0000
  1156 CB     -22.7100 153.6870  -3.7110   C.3       3 ILE    0.0000
  1157 CG2    -23.0110 152.6500  -2.6340   C.3       3 ILE    0.0000
  1158 CG1    -23.6180 154.8970  -3.5190   C.3       3 ILE    0.0000
  1159 CD1    -23.9450 155.5080  -4.8780   C.3       3 ILE    0.0000
  1160 HA     -21.0710 154.5100  -2.6100   H         3 ILE    0.0000
  1161 HB     -22.8910 153.2510  -4.6940   H         3 ILE    0.0000
  1162 HG12   -23.1110 155.6370  -2.9010   H         3 ILE    0.0000
  1163 HG13   -24.5410 154.5850  -3.0290   H         3 ILE    0.0000
  1164 HG21   -23.0860 151.6620  -3.0900   H         3 ILE    0.0000
  1165 HG22   -22.2090 152.6490  -1.8960   H         3 ILE    0.0000
  1166 HG23   -23.9540 152.8960  -2.1460   H         3 ILE    0.0000
  1167 HD11   -23.5270 154.8830  -5.6670   H         3 ILE    0.0000
  1168 HD12   -25.0270 155.5690  -4.9980   H         3 ILE    0.0000
  1169 HD13   -23.5160 156.5070  -4.9400   H         3 ILE    0.0000
  1170 N      -19.6360 152.4990  -2.7820   N.am      5 LEU    0.0000
  1171 CA     -18.6890 151.4010  -2.8880   C.3       5 LEU    0.0000
  1172 C      -19.2040 150.1840  -2.1270   C.2       5 LEU    0.0000
  1173 O      -20.0060 150.3230  -1.1980   O.2       5 LEU    0.0000
  1174 CB     -17.3020 151.7730  -2.3430   C.3       5 LEU    0.0000
  1175 CG     -16.3470 152.6910  -3.1190   C.3       5 LEU    0.0000
  1176 CD1    -17.0160 153.9690  -3.6000   C.3       5 LEU    0.0000
  1177 CD2    -15.1420 153.0320  -2.2540   C.3       5 LEU    0.0000
  1178 H      -19.7600 152.9600  -1.8920   H         5 LEU    0.0000
  1179 HA     -18.5870 151.1330  -3.9400   H         5 LEU    0.0000
  1180 HB2    -17.4710 152.2520  -1.3790   H         5 LEU    0.0000
  1181 HB3    -16.7700 150.8410  -2.1520   H         5 LEU    0.0000
  1182 HG     -15.9910 152.1460  -3.9940   H         5 LEU    0.0000
  1183 HD21   -14.6670 152.1120  -1.9130   H         5 LEU    0.0000
  1184 HD22   -14.4290 153.6140  -2.8380   H         5 LEU    0.0000
  1185 HD23   -15.4670 153.6150  -1.3920   H         5 LEU    0.0000
  1186 HD11   -16.2560 154.6680  -3.9510   H         5 LEU    0.0000
  1187 HD12   -17.5720 154.4200  -2.7780   H         5 LEU    0.0000
  1188 HD13   -17.7000 153.7360  -4.4160   H         5 LEU    0.0000
  1189 N      -18.7780 148.9780  -2.5020   N.am      2 PRO    0.0000
  1190 CA     -19.0860 147.8080  -1.6740   C.3       2 PRO    0.0000
  1191 C      -18.4810 147.9620  -0.2870   C.2       2 PRO    0.0000
  1192 O      -17.3800 148.4930  -0.1220   O.2       2 PRO    0.0000
  1193 CB     -18.4500 146.6500  -2.4470   C.3       2 PRO    0.0000
  1194 CG     -18.4370 147.1190  -3.8580   C.3       2 PRO    0.0000
  1195 CD     -18.1630 148.5950  -3.7830   C.3       2 PRO    0.0000
  1196 HA     -20.1650 147.6680  -1.6030   H         2 PRO    0.0000
  1197 HB2    -17.4370 146.4590  -2.0930   H         2 PRO    0.0000
  1198 HB3    -19.0600 145.7510  -2.3520   H         2 PRO    0.0000
  1199 HG2    -19.4010 146.9330  -4.3310   H         2 PRO    0.0000
  1200 HG3    -17.6440 146.6180  -4.4130   H         2 PRO    0.0000
  1201 HD2    -17.0920 148.7950  -3.7790   H         2 PRO    0.0000
  1202 HD3    -18.6460 149.1160  -4.6100   H         2 PRO    0.0000
  1203 N      -19.2120 147.4840   0.7130   N.am      1 GLY    0.0000
  1204 CA     -18.9030 147.7860   2.0900   C.3       1 GLY    0.0000
  1205 C      -19.5650 149.0360   2.6200   C.2       1 GLY    0.0000
  1206 O      -19.3000 149.4190   3.7670   O.2       1 GLY    0.0000
  1207 H      -20.0050 146.8940   0.5050   H         1 GLY    0.0000
  1208 HA2    -17.8240 147.9090   2.1780   H         1 GLY    0.0000
  1209 HA3    -19.2080 146.9420   2.7080   H         1 GLY    0.0000
  1210 N      -20.4070 149.6860   1.8230   N.am     19 PHE    0.0000
  1211 CA     -21.3520 150.6610   2.3380   C.3      19 PHE    0.0000
  1212 C      -22.6720 149.9590   2.6510   C.2      19 PHE    0.0000
  1213 O      -22.8700 148.7850   2.3310   O.2      19 PHE    0.0000
  1214 CB     -21.5710 151.8050   1.3410   C.3      19 PHE    0.0000
  1215 CG     -20.3260 152.6020   1.0140   C.ar     19 PHE    0.0000
  1216 CD1    -19.1170 152.3570   1.6510   C.ar     19 PHE    0.0000
  1217 CD2    -20.3830 153.6270   0.0840   C.ar     19 PHE    0.0000
  1218 CE1    -17.9900 153.1010   1.3490   C.ar     19 PHE    0.0000
  1219 CE2    -19.2590 154.3760  -0.2200   C.ar     19 PHE    0.0000
  1220 CZ     -18.0620 154.1120   0.4130   C.ar     19 PHE    0.0000
  1221 H      -20.3890 149.4960   0.8310   H        19 PHE    0.0000
  1222 HA     -20.9520 151.0780   3.2630   H        19 PHE    0.0000
  1223 HB2    -21.9550 151.3790   0.4140   H        19 PHE    0.0000
  1224 HB3    -22.3210 152.4830   1.7490   H        19 PHE    0.0000
  1225 HD1    -19.0550 151.5750   2.3930   H        19 PHE    0.0000
  1226 HD2    -21.3180 153.8450  -0.4110   H        19 PHE    0.0000
  1227 HE1    -17.0540 152.8900   1.8460   H        19 PHE    0.0000
  1228 HE2    -19.3190 155.1670  -0.9530   H        19 PHE    0.0000
  1229 HZ     -17.1840 154.6950   0.1770   H        19 PHE    0.0000
  1230 N      -23.5900 150.6950   3.2790   N.am      3 ILE    0.0000
  1231 CA     -24.8500 150.1160   3.7320   C.3       3 ILE    0.0000
  1232 C      -25.9470 151.1630   3.6320   C.2       3 ILE    0.0000
  1233 O      -25.6990 152.3640   3.7670   O.2       3 ILE    0.0000
  1234 CB     -24.7450 149.5890   5.1820   C.3       3 ILE    0.0000
  1235 CG1    -23.9010 150.5370   6.0240   C.3       3 ILE    0.0000
  1236 CG2    -24.1320 148.2070   5.2240   C.3       3 ILE    0.0000
  1237 CD1    -23.7720 150.0900   7.4400   C.3       3 ILE    0.0000
  1238 H      -23.4090 151.6750   3.4450   H         3 ILE    0.0000
  1239 HA     -25.1050 149.2830   3.0770   H         3 ILE    0.0000
  1240 HB     -25.7470 149.5400   5.6090   H         3 ILE    0.0000
  1241 HG12   -22.9050 150.5990   5.5860   H         3 ILE    0.0000
  1242 HG13   -24.3570 151.5270   6.0060   H         3 ILE    0.0000
  1243 HD11   -23.6470 150.9590   8.0860   H         3 ILE    0.0000
  1244 HD12   -22.9040 149.4380   7.5370   H         3 ILE    0.0000
  1245 HD13   -24.6700 149.5460   7.7320   H         3 ILE    0.0000
  1246 HG21   -23.6150 148.0670   6.1730   H         3 ILE    0.0000
  1247 HG22   -23.4210 148.1000   4.4040   H         3 ILE    0.0000
  1248 HG23   -24.9170 147.4580   5.1240   H         3 ILE    0.0000
  1249 N      -27.1700 150.6970   3.3890   N.am      5 LEU    0.0000
  1250 CA     -28.3570 151.5230   3.5470   C.3       5 LEU    0.0000
  1251 C      -28.8520 151.4280   4.9840   C.2       5 LEU    0.0000
  1252 O      -28.7880 150.3630   5.6050   O.2       5 LEU    0.0000
  1253 CB     -29.4590 151.0840   2.5820   C.3       5 LEU    0.0000
  1254 CG     -29.2340 151.3390   1.0910   C.3       5 LEU    0.0000
  1255 CD1    -30.2660 150.5950   0.2600   C.3       5 LEU    0.0000
  1256 CD2    -29.2880 152.8270   0.7920   C.3       5 LEU    0.0000
  1257 H      -27.2770 149.7400   3.0850   H         5 LEU    0.0000
  1258 HA     -28.0950 152.5590   3.3330   H         5 LEU    0.0000
  1259 HB2    -29.5990 150.0110   2.7120   H         5 LEU    0.0000
  1260 HB3    -30.3830 151.5830   2.8750   H         5 LEU    0.0000
  1261 HG     -28.2440 150.9690   0.8230   H         5 LEU    0.0000
  1262 HD21   -28.5430 153.3470   1.3950   H         5 LEU    0.0000
  1263 HD22   -30.2800 153.2100   1.0320   H         5 LEU    0.0000
  1264 HD23   -29.0800 152.9930  -0.2650   H         5 LEU    0.0000
  1265 HD11   -30.2150 149.5300   0.4850   H         5 LEU    0.0000
  1266 HD12   -31.2620 150.9690   0.4980   H         5 LEU    0.0000
  1267 HD13   -30.0620 150.7530  -0.7990   H         5 LEU    0.0000
  1268 N      -29.3490 152.5450   5.5120   N.am     14 CYS    0.0000
  1269 CA     -29.7450 152.6120   6.9120   C.3      14 CYS    0.0000
  1270 C      -30.9770 153.4860   7.0840   C.2      14 CYS    0.0000
  1271 O      -31.1270 154.5090   6.4100   O.2      14 CYS    0.0000
  1272 CB     -28.6120 153.1410   7.8020   C.3      14 CYS    0.0000
  1273 SG     -27.0730 152.2080   7.6830   S.3      14 CYS    0.0000
  1274 H      -29.4540 153.3630   4.9290   H        14 CYS    0.0000
  1275 HA     -29.9950 151.6040   7.2430   H        14 CYS    0.0000
  1276 HB2    -28.4080 154.1730   7.5160   H        14 CYS    0.0000
  1277 HB3    -28.9480 153.1270   8.8390   H        14 CYS    0.0000
  1278 HG     -27.3280 150.9060   7.8400   H        14 CYS    0.0000
  1279 N      -31.8620 153.0500   7.9730   N.am      7 ASP    0.0000
  1280 CA     -32.9460 153.8900   8.4550   C.3       7 ASP    0.0000
  1281 C      -32.3940 155.2250   8.9560   C.2       7 ASP    0.0000
  1282 O      -31.4200 155.2390   9.7240   O.2       7 ASP    0.0000
  1283 CB     -33.7030 153.1640   9.5700   C.3       7 ASP    0.0000
  1284 CG     -34.4270 154.1120  10.4980   C.2       7 ASP    0.0000
  1285 OD1    -35.4610 154.6780  10.0870   O.co2     7 ASP    0.0000
  1286 OD2    -33.9640 154.2830  11.6450   O.co2     7 ASP    0.0000
  1287 H      -31.7790 152.1070   8.3250   H         7 ASP    0.0000
  1288 HA     -33.6340 154.0820   7.6310   H         7 ASP    0.0000
  1289 HB2    -34.4340 152.4950   9.1160   H         7 ASP    0.0000
  1290 HB3    -32.9950 152.5730  10.1510   H         7 ASP    0.0000
  1291 N      -32.9720 156.3590   8.5420   N.am      2 PRO    0.0000
  1292 CA     -32.3950 157.6610   8.9180   C.3       2 PRO    0.0000
  1293 C      -32.4900 157.9750  10.4020   C.2       2 PRO    0.0000
  1294 O      -31.7550 158.8510  10.8740   O.2       2 PRO    0.0000
  1295 CB     -33.2070 158.6660   8.0880   C.3       2 PRO    0.0000
  1296 CG     -34.4480 157.9480   7.6930   C.3       2 PRO    0.0000
  1297 CD     -34.1110 156.4920   7.6180   C.3       2 PRO    0.0000
  1298 HA     -31.3510 157.6960   8.6070   H         2 PRO    0.0000
  1299 HB2    -32.6460 158.9710   7.2040   H         2 PRO    0.0000
  1300 HB3    -33.4550 159.5380   8.6930   H         2 PRO    0.0000
  1301 HG2    -35.2280 158.1130   8.4370   H         2 PRO    0.0000
  1302 HG3    -34.7850 158.3010   6.7180   H         2 PRO    0.0000
  1303 HD2    -33.8260 156.2090   6.6050   H         2 PRO    0.0000
  1304 HD3    -34.9520 155.8880   7.9600   H         2 PRO    0.0000
  1305 N      -33.3570 157.2960  11.1530   N.am     16 ASN    0.0000
  1306 CA     -33.4860 157.5610  12.5810   C.3      16 ASN    0.0000
  1307 C      -32.2860 156.9950  13.3270   C.2      16 ASN    0.0000
  1308 O      -31.3390 157.7260  13.6360   O.2      16 ASN    0.0000
  1309 CB     -34.7880 156.9700  13.1280   C.3      16 ASN    0.0000
  1310 CG     -35.9710 157.2210  12.2140   C.2      16 ASN    0.0000
  1311 OD1    -35.8840 158.0030  11.2670   O.2      16 ASN    0.0000
  1312 ND2    -37.0860 156.5540  12.4910   N.am     16 ASN    0.0000
  1313 H      -33.9340 156.5860  10.7260   H        16 ASN    0.0000
  1314 HA     -33.5070 158.6400  12.7310   H        16 ASN    0.0000
  1315 HB2    -34.6600 155.8940  13.2460   H        16 ASN    0.0000
  1316 HB3    -34.9940 157.4110  14.1030   H        16 ASN    0.0000
  1317 HD21   -37.1140 155.9210  13.2770   H        16 ASN    0.0000
  1318 HD22   -37.9060 156.6800  11.9150   H        16 ASN    0.0000
  1319 N      -32.3140 155.6990  13.6230   N.am     16 ASN    0.0000
  1320 CA     -31.1560 155.0050  14.1830   C.3      16 ASN    0.0000
  1321 C      -30.3390 154.4540  13.0210   C.2      16 ASN    0.0000
  1322 O      -30.6370 153.3850  12.4840   O.2      16 ASN    0.0000
  1323 CB     -31.5900 153.9070  15.1480   C.3      16 ASN    0.0000
  1324 CG     -32.8650 153.2090  14.7080   C.2      16 ASN    0.0000
  1325 OD1    -32.8570 152.4000  13.7810   O.2      16 ASN    0.0000
  1326 ND2    -33.9700 153.5180  15.3790   N.am     16 ASN    0.0000
  1327 H      -33.1630 155.1780  13.4560   H        16 ASN    0.0000
  1328 HA     -30.5460 155.7270  14.7270   H        16 ASN    0.0000
  1329 HB2    -30.7930 153.1670  15.2150   H        16 ASN    0.0000
  1330 HB3    -31.7490 154.3450  16.1330   H        16 ASN    0.0000
  1331 HD21   -33.9310 154.1870  16.1350   H        16 ASN    0.0000
  1332 HD22   -34.8480 153.0840  15.1330   H        16 ASN    0.0000
  1333 N      -29.3000 155.1870  12.6310   N.am      5 LEU    0.0000
  1334 CA     -28.4350 154.7750  11.5370   C.3       5 LEU    0.0000
  1335 C      -27.2340 154.0130  12.0950   C.2       5 LEU    0.0000
  1336 O      -27.1510 153.7280  13.2930   O.2       5 LEU    0.0000
  1337 CB     -28.0500 155.9950  10.6960   C.3       5 LEU    0.0000
  1338 CG     -27.4450 157.2640  11.3210   C.3       5 LEU    0.0000
  1339 CD1    -26.0940 157.0440  12.0040   C.3       5 LEU    0.0000
  1340 CD2    -27.3410 158.3690  10.2750   C.3       5 LEU    0.0000
  1341 H      -29.1060 156.0550  13.1090   H         5 LEU    0.0000
  1342 HA     -28.9990 154.0930  10.9010   H         5 LEU    0.0000
  1343 HB2    -27.3250 155.6420   9.9630   H         5 LEU    0.0000
  1344 HB3    -28.9400 156.3010  10.1470   H         5 LEU    0.0000
  1345 HG     -28.1400 157.6090  12.0860   H         5 LEU    0.0000
  1346 HD11   -26.1870 156.2520  12.7470   H         5 LEU    0.0000
  1347 HD12   -25.7800 157.9660  12.4930   H         5 LEU    0.0000
  1348 HD13   -25.3520 156.7570  11.2580   H         5 LEU    0.0000
  1349 HD21   -26.9110 159.2610  10.7300   H         5 LEU    0.0000
  1350 HD22   -28.3350 158.6000   9.8910   H         5 LEU    0.0000
  1351 HD23   -26.7030 158.0360   9.4560   H         5 LEU    0.0000
  1352 N      -26.2860 153.6730  11.2280   N.am     14 CYS    0.0000
  1353 CA     -25.2250 152.7470  11.5880   C.3      14 CYS    0.0000
  1354 C      -23.9950 153.4750  12.1130   C.2      14 CYS    0.0000
  1355 O      -23.6980 154.6070  11.7220   O.2      14 CYS    0.0000
  1356 CB     -24.8320 151.8800  10.3950   C.3      14 CYS    0.0000
  1357 SG     -23.5770 150.6530  10.8000   S.3      14 CYS    0.0000
  1358 H      -26.3030 154.0670  10.2980   H        14 CYS    0.0000
  1359 HA     -25.5970 152.0930  12.3770   H        14 CYS    0.0000
  1360 HB2    -25.7210 151.3620  10.0350   H        14 CYS    0.0000
  1361 HB3    -24.4530 152.5240   9.6010   H        14 CYS    0.0000
  1362 HG     -22.5190 151.2600  11.3460   H        14 CYS    0.0000
  1363 N      -23.2790 152.8000  13.0080   N.am     17 HIS    0.0000
  1364 CA     -22.0050 153.2790  13.5140   C.3      17 HIS    0.0000
  1365 C      -20.9010 153.0350  12.4890   C.2      17 HIS    0.0000
  1366 O      -21.0200 152.1920  11.5970   O.2      17 HIS    0.0000
  1367 CB     -21.6590 152.5830  14.8280   C.3      17 HIS    0.0000
  1368 CG     -22.7060 152.7310  15.8880   C.ar     17 HIS    0.0000
  1369 ND1    -23.1960 153.9550  16.2900   N.ar     17 HIS    0.0000
  1370 CD2    -23.3560 151.8030  16.6300   C.ar     17 HIS    0.0000
  1371 CE1    -24.1010 153.7750  17.2360   C.ar     17 HIS    0.0000
  1372 NE2    -24.2170 152.4780  17.4600   N.ar     17 HIS    0.0000
  1373 H      -23.6360 151.9190  13.3490   H        17 HIS    0.0000
  1374 HA     -22.0820 154.3510  13.6960   H        17 HIS    0.0000
  1375 HB2    -21.5220 151.5200  14.6270   H        17 HIS    0.0000
  1376 HB3    -20.7210 152.9920  15.2040   H        17 HIS    0.0000
  1377 HD2    -23.2220 150.7330  16.5790   H        17 HIS    0.0000
  1378 HE1    -24.6520 154.5550  17.7400   H        17 HIS    0.0000
  1379 HE2    -24.8380 152.0520  18.1330   H        17 HIS    0.0000
  1380 N      -19.8150 153.7850  12.6250   N.am     13 SER    0.0000
  1381 CA     -18.6960 153.6680  11.6970   C.3      13 SER    0.0000
  1382 C      -17.4220 154.0740  12.4330   C.2      13 SER    0.0000
  1383 O      -17.3570 154.0120  13.6650   O.2      13 SER    0.0000
  1384 CB     -18.9560 154.5040  10.4320   C.3      13 SER    0.0000
  1385 OG     -18.3010 155.7570  10.5050   O.3      13 SER    0.0000
  1386 H      -19.7620 154.4490  13.3850   H        13 SER    0.0000
  1387 HA     -18.6030 152.6220  11.4030   H        13 SER    0.0000
  1388 HB2    -20.0290 154.6690  10.3290   H        13 SER    0.0000
  1389 HB3    -18.5910 153.9590   9.5610   H        13 SER    0.0000
  1390 HG     -18.8520 156.4310  10.1010   H        13 SER    0.0000
  1391 N      -16.4150 154.4970  11.6800   N.am      1 GLY    0.0000
  1392 CA     -15.0710 154.6800  12.1890   C.3       1 GLY    0.0000
  1393 C      -14.1320 153.5990  11.6790   C.2       1 GLY    0.0000
  1394 O      -14.4290 152.8640  10.7340   O.2       1 GLY    0.0000
  1395 H      -16.5940 154.7010  10.7070   H         1 GLY    0.0000
  1396 HA2    -15.0960 154.6420  13.2780   H         1 GLY    0.0000
  1397 HA3    -14.6990 155.6550  11.8730   H         1 GLY    0.0000
  1398 N      -12.9710 153.5120  12.3290   N.am      4 ARG    0.0000
  1399 CA     -11.9160 152.6280  11.8470   C.3       4 ARG    0.0000
  1400 C      -11.2090 151.8370  12.9370   C.2       4 ARG    0.0000
  1401 O      -10.3930 150.9750  12.5980   O.2       4 ARG    0.0000
  1402 CB     -10.8700 153.4200  11.0410   C.3       4 ARG    0.0000
  1403 CG      -9.9290 154.3200  11.8470   C.3       4 ARG    0.0000
  1404 CD     -10.6140 155.5840  12.3540   C.3       4 ARG    0.0000
  1405 NE      -9.6550 156.5840  12.8160   N.pl3     4 ARG    0.0000
  1406 CZ      -9.4750 156.9210  14.0880   C.cat     4 ARG    0.0000
  1407 NH1    -10.1830 156.3330  15.0390   N.pl3     4 ARG    0.0000
  1408 NH2     -8.5790 157.8440  14.4100   N.pl3     4 ARG    0.0000
  1409 H      -12.8210 154.0630  13.1620   H         4 ARG    0.0000
  1410 HA     -12.3760 151.9100  11.1680   H         4 ARG    0.0000
  1411 HB2    -11.4060 154.0510  10.3320   H         4 ARG    0.0000
  1412 HB3    -10.2640 152.7110  10.4770   H         4 ARG    0.0000
  1413 HG2     -9.5570 153.7570  12.7040   H         4 ARG    0.0000
  1414 HG3     -9.0860 154.6030  11.2170   H         4 ARG    0.0000
  1415 HD2    -11.2710 155.3190  13.1820   H         4 ARG    0.0000
  1416 HD3    -11.2120 156.0110  11.5490   H         4 ARG    0.0000
  1417 HE      -9.0900 157.0510  12.1210   H         4 ARG    0.0000
  1418 HH11   -10.8650 155.6280  14.7980   H         4 ARG    0.0000
  1419 HH12   -10.0420 156.5900  16.0060   H         4 ARG    0.0000
  1420 HH21    -8.0350 158.2930  13.6870   H         4 ARG    0.0000
  1421 HH22    -8.4410 158.0980  15.3780   H         4 ARG    0.0000
  1422 N      -11.4800 152.0860  14.2170   N.am     11 THR    0.0000
  1423 CA     -10.9420 151.2870  15.3080   C.3      11 THR    0.0000
  1424 C      -12.0790 150.6110  16.0630   C.2      11 THR    0.0000
  1425 O      -13.1650 151.1800  16.2140   O.2      11 THR    0.0000
  1426 CB     -10.1170 152.1480  16.2740   C.3      11 THR    0.0000
  1427 OG1     -9.3280 153.0810  15.5280   O.3      11 THR    0.0000
  1428 CG2     -9.1920 151.2770  17.1120   C.3      11 THR    0.0000
  1429 H      -12.0850 152.8630  14.4400   H        11 THR    0.0000
  1430 HA     -10.2950 150.5160  14.8890   H        11 THR    0.0000
  1431 HB     -10.7910 152.6940  16.9340   H        11 THR    0.0000
  1432 HG1     -9.8460 153.8700  15.3520   H        11 THR    0.0000
  1433 HG21    -8.6160 151.9060  17.7900   H        11 THR    0.0000
  1434 HG22    -8.5130 150.7330  16.4560   H        11 THR    0.0000
  1435 HG23    -9.7850 150.5680  17.6890   H        11 THR    0.0000
  1436 N      -11.8240 149.3950  16.5440   N.am     19 PHE    0.0000
  1437 CA     -12.8420 148.6490  17.2750   C.3      19 PHE    0.0000
  1438 C      -12.2010 147.4800  18.0090   C.2      19 PHE    0.0000
  1439 O      -11.1450 146.9820  17.6080   O.2      19 PHE    0.0000
  1440 CB     -13.9470 148.1380  16.3380   C.3      19 PHE    0.0000
  1441 CG     -13.4850 147.0900  15.3650   C.ar     19 PHE    0.0000
  1442 CD1    -12.7600 147.4390  14.2380   C.ar     19 PHE    0.0000
  1443 CD2    -13.7800 145.7550  15.5740   C.ar     19 PHE    0.0000
  1444 CE1    -12.3370 146.4740  13.3400   C.ar     19 PHE    0.0000
  1445 CE2    -13.3610 144.7860  14.6800   C.ar     19 PHE    0.0000
  1446 CZ     -12.6380 145.1460  13.5630   C.ar     19 PHE    0.0000
  1447 H      -10.9130 148.9840  16.4000   H        19 PHE    0.0000
  1448 HA     -13.2940 149.3130  18.0120   H        19 PHE    0.0000
  1449 HB2    -14.3350 148.9850  15.7720   H        19 PHE    0.0000
  1450 HB3    -14.7530 147.7230  16.9420   H        19 PHE    0.0000
  1451 HD1    -12.5220 148.4770  14.0570   H        19 PHE    0.0000
  1452 HD2    -14.3450 145.4650  16.4470   H        19 PHE    0.0000
  1453 HE1    -11.7720 146.7600  12.4650   H        19 PHE    0.0000
  1454 HE2    -13.6000 143.7480  14.8570   H        19 PHE    0.0000
  1455 HZ     -12.3080 144.3910  12.8650   H        19 PHE    0.0000
  1456 N      -12.8570 147.0520  19.0860   N.am      7 ASP    0.0000
  1457 CA     -12.4790 145.8660  19.8410   C.3       7 ASP    0.0000
  1458 C      -13.3010 144.6730  19.3720   C.2       7 ASP    0.0000
  1459 O      -14.4580 144.8150  18.9680   O.2       7 ASP    0.0000
  1460 CB     -12.6940 146.0710  21.3440   C.3       7 ASP    0.0000
  1461 CG     -11.8420 147.1870  21.9150   C.2       7 ASP    0.0000
  1462 OD1    -10.6510 147.2680  21.5560   O.co2     7 ASP    0.0000
  1463 OD2    -12.3640 147.9830  22.7250   O.co2     7 ASP    0.0000
  1464 H      -13.6610 147.5790  19.3960   H         7 ASP    0.0000
  1465 HA     -11.4240 145.6580  19.6620   H         7 ASP    0.0000
  1466 HB2    -13.7430 146.3120  21.5150   H         7 ASP    0.0000
  1467 HB3    -12.4550 145.1430  21.8640   H         7 ASP    0.0000
  1468 N      -12.7000 143.4880  19.4400   N.am     18 ALA    0.0000
  1469 CA     -13.3770 142.2930  18.9580   C.3      18 ALA    0.0000
  1470 C      -12.7970 141.0680  19.6450   C.2      18 ALA    0.0000
  1471 O      -11.6870 141.1010  20.1810   O.2      18 ALA    0.0000
  1472 CB     -13.2570 142.1570  17.4380   C.3      18 ALA    0.0000
  1473 H      -11.7700 143.4170  19.8280   H        18 ALA    0.0000
  1474 HA     -14.4330 142.3660  19.2160   H        18 ALA    0.0000
  1475 HB1    -12.2230 141.9370  17.1730   H        18 ALA    0.0000
  1476 HB2    -13.9000 141.3470  17.0940   H        18 ALA    0.0000
  1477 HB3    -13.5630 143.0900  16.9640   H        18 ALA    0.0000
  1478 N      -13.5640 139.9800  19.6020   N.am     15 GLN    0.0000
  1479 CA     -13.1930 138.7010  20.1960   C.3      15 GLN    0.0000
  1480 C      -12.8160 137.7510  19.0690   C.2      15 GLN    0.0000
  1481 O      -13.6590 137.4160  18.2290   O.2      15 GLN    0.0000
  1482 CB     -14.3390 138.1330  21.0320   C.3      15 GLN    0.0000
  1483 CG     -13.9220 137.0610  22.0180   C.3      15 GLN    0.0000
  1484 CD     -14.9370 136.8740  23.1260   C.2      15 GLN    0.0000
  1485 OE1    -16.0950 137.2680  22.9930   O.2      15 GLN    0.0000
  1486 NE2    -14.5110 136.2640  24.2250   N.am     15 GLN    0.0000
  1487 H      -14.4550 140.0450  19.1300   H        15 GLN    0.0000
  1488 HA     -12.3250 138.8480  20.8390   H        15 GLN    0.0000
  1489 HB2    -14.7920 138.9520  21.5900   H        15 GLN    0.0000
  1490 HB3    -15.0870 137.7150  20.3590   H        15 GLN    0.0000
  1491 HG2    -13.8090 136.1180  21.4830   H        15 GLN    0.0000
  1492 HG3    -12.9630 137.3370  22.4580   H        15 GLN    0.0000
  1493 HE21   -13.5520 135.9540  24.2910   H        15 GLN    0.0000
  1494 HE22   -15.1460 136.1100  24.9950   H        15 GLN    0.0000
  1495 N      -11.5600 137.3130  19.0570   N.am      3 ILE    0.0000
  1496 CA     -10.9430 136.7130  17.8800   C.3       3 ILE    0.0000
  1497 C      -10.3450 135.3690  18.2820   C.2       3 ILE    0.0000
  1498 O       -9.4250 135.3130  19.1090   O.2       3 ILE    0.0000
  1499 CB      -9.8740 137.6330  17.2680   C.3       3 ILE    0.0000
  1500 CG1    -10.5290 138.7160  16.4060   C.3       3 ILE    0.0000
  1501 CG2     -8.9000 136.8440  16.4210   C.3       3 ILE    0.0000
  1502 CD1     -9.5490 139.6810  15.7700   C.3       3 ILE    0.0000
  1503 H      -11.0100 137.4000  19.9000   H         3 ILE    0.0000
  1504 HA     -11.7180 136.5380  17.1340   H         3 ILE    0.0000
  1505 HB      -9.3240 138.1150  18.0760   H         3 ILE    0.0000
  1506 HG12   -11.0910 138.2260  15.6110   H         3 ILE    0.0000
  1507 HG13   -11.2240 139.2830  17.0260   H         3 ILE    0.0000
  1508 HD11   -10.0280 140.6510  15.6360   H         3 ILE    0.0000
  1509 HD12    -9.2360 139.2940  14.8000   H         3 ILE    0.0000
  1510 HD13    -8.6780 139.7920  16.4150   H         3 ILE    0.0000
  1511 HG21    -8.4310 136.0710  17.0300   H         3 ILE    0.0000
  1512 HG22    -8.1340 137.5130  16.0300   H         3 ILE    0.0000
  1513 HG23    -9.4330 136.3790  15.5920   H         3 ILE    0.0000
  1514 N      -10.8860 134.2880  17.7240   N.am      6 VAL    0.0000
  1515 CA     -10.3630 132.9360  17.9140   C.3       6 VAL    0.0000
  1516 C       -9.4680 132.5750  16.7310   C.2       6 VAL    0.0000
  1517 O       -9.8740 132.6840  15.5670   O.2       6 VAL    0.0000
  1518 CB     -11.4970 131.9170  18.1430   C.3       6 VAL    0.0000
  1519 CG1    -12.3910 131.7660  16.9360   C.3       6 VAL    0.0000
  1520 CG2    -10.9020 130.5460  18.4410   C.3       6 VAL    0.0000
  1521 H      -11.7000 134.4080  17.1390   H         6 VAL    0.0000
  1522 HA      -9.7410 132.9450  18.8090   H         6 VAL    0.0000
  1523 HB     -12.0980 132.2380  18.9940   H         6 VAL    0.0000
  1524 HG11   -12.8370 132.7300  16.6910   H         6 VAL    0.0000
  1525 HG12   -11.8020 131.4130  16.0900   H         6 VAL    0.0000
  1526 HG13   -13.1790 131.0460  17.1560   H         6 VAL    0.0000
  1527 HG21   -10.2480 130.6140  19.3100   H         6 VAL    0.0000
  1528 HG22   -11.7050 129.8380  18.6460   H         6 VAL    0.0000
  1529 HG23   -10.3280 130.2040  17.5800   H         6 VAL    0.0000
  1530 N       -8.2160 132.2310  17.0330   N.am      3 ILE    0.0000
  1531 CA      -7.2390 131.8610  16.0130   C.3       3 ILE    0.0000
  1532 C       -7.4850 130.4100  15.6210   C.2       3 ILE    0.0000
  1533 O       -7.4430 129.5110  16.4690   O.2       3 ILE    0.0000
  1534 CB      -5.7990 132.0620  16.5130   C.3       3 ILE    0.0000
  1535 CG1     -5.5150 133.5380  16.8130   C.3       3 ILE    0.0000
  1536 CG2     -4.8040 131.5640  15.4720   C.3       3 ILE    0.0000
  1537 CD1     -6.2620 134.5160  15.9350   C.3       3 ILE    0.0000
  1538 H       -7.9330 132.2260  18.0030   H         3 ILE    0.0000
  1539 HA      -7.3950 132.4900  15.1370   H         3 ILE    0.0000
  1540 HB      -5.6640 131.4870  17.4290   H         3 ILE    0.0000
  1541 HG12    -5.7910 133.7330  17.8490   H         3 ILE    0.0000
  1542 HG13    -4.4460 133.7160  16.6990   H         3 ILE    0.0000
  1543 HG21    -4.7820 132.2560  14.6300   H         3 ILE    0.0000
  1544 HG22    -3.8110 131.5030  15.9180   H         3 ILE    0.0000
  1545 HG23    -5.1070 130.5770  15.1230   H         3 ILE    0.0000
  1546 HD11    -5.7870 135.4950  15.9950   H         3 ILE    0.0000
  1547 HD12    -6.2430 134.1650  14.9030   H         3 ILE    0.0000
  1548 HD13    -7.2950 134.5930  16.2740   H         3 ILE    0.0000
  1549 N       -7.7620 130.1770  14.3400   N.am      3 ILE    0.0000
  1550 CA      -8.0780 128.8410  13.8720   C.3       3 ILE    0.0000
  1551 C       -6.9330 128.2140  13.0840   C.2       3 ILE    0.0000
  1552 O       -6.7660 126.9890  13.1320   O.2       3 ILE    0.0000
  1553 CB      -9.3830 128.8330  13.0480   C.3       3 ILE    0.0000
  1554 CG1     -9.1850 129.5150  11.6960   C.3       3 ILE    0.0000
  1555 CG2    -10.5040 129.5020  13.8310   C.3       3 ILE    0.0000
  1556 CD1    -10.4230 129.5080  10.8220   C.3       3 ILE    0.0000
  1557 H       -7.7520 130.9440  13.6830   H         3 ILE    0.0000
  1558 HA      -8.2450 128.2200  14.7520   H         3 ILE    0.0000
  1559 HB      -9.6660 127.7960  12.8680   H         3 ILE    0.0000
  1560 HG12    -8.3860 128.9990  11.1640   H         3 ILE    0.0000
  1561 HG13    -8.8820 130.5480  11.8660   H         3 ILE    0.0000
  1562 HD11   -10.1280 129.5120   9.7730   H         3 ILE    0.0000
  1563 HD12   -11.0100 128.6130  11.0310   H         3 ILE    0.0000
  1564 HD13   -11.0220 130.3930  11.0340   H         3 ILE    0.0000
  1565 HG21   -11.4190 129.4900  13.2390   H         3 ILE    0.0000
  1566 HG22   -10.2280 130.5330  14.0510   H         3 ILE    0.0000
  1567 HG23   -10.6680 128.9620  14.7640   H         3 ILE    0.0000
  1568 N       -6.1350 129.0070  12.3720   N.am     12 GLU    0.0000
  1569 CA      -5.0610 128.4580  11.5520   C.3      12 GLU    0.0000
  1570 C       -3.9140 129.4540  11.4710   C.2      12 GLU    0.0000
  1571 O       -4.0790 130.5360  10.9000   O.2      12 GLU    0.0000
  1572 CB      -5.5730 128.1140  10.1510   C.3      12 GLU    0.0000
  1573 CG      -4.6860 127.1540   9.3780   C.3      12 GLU    0.0000
  1574 CD      -5.3850 126.5570   8.1670   C.2      12 GLU    0.0000
  1575 OE1     -4.7260 125.8160   7.4070   O.co2    12 GLU    0.0000
  1576 OE2     -6.5890 126.8330   7.9730   O.co2    12 GLU    0.0000
  1577 H       -6.2760 130.0070  12.4000   H        12 GLU    0.0000
  1578 HA      -4.6960 127.5450  12.0230   H        12 GLU    0.0000
  1579 HB2     -5.6530 129.0390   9.5800   H        12 GLU    0.0000
  1580 HB3     -6.5660 127.6740  10.2410   H        12 GLU    0.0000
  1581 HG2     -3.8010 127.6930   9.0390   H        12 GLU    0.0000
  1582 HG3     -4.3760 126.3460  10.0410   H        12 GLU    0.0000
  1583 N       -2.7540 129.0800  12.0160   N.am     17 HIS    0.0000
  1584 CA      -1.5360 129.8710  11.8570   C.3      17 HIS    0.0000
  1585 C       -0.3190 129.0780  12.3230   C.2      17 HIS    0.0000
  1586 O       -0.3110 128.5320  13.4310   O.2      17 HIS    0.0000
  1587 CB      -1.6420 131.1970  12.6160   C.3      17 HIS    0.0000
  1588 CG      -0.5380 132.1600  12.3040   C.ar     17 HIS    0.0000
  1589 ND1      0.7790 131.9140  12.6240   N.ar     17 HIS    0.0000
  1590 CD2     -0.5530 133.3540  11.6660   C.ar     17 HIS    0.0000
  1591 CE1      1.5260 132.9260  12.2190   C.ar     17 HIS    0.0000
  1592 NE2      0.7420 133.8130  11.6340   N.ar     17 HIS    0.0000
  1593 H       -2.7170 128.2260  12.5540   H        17 HIS    0.0000
  1594 HA      -1.4110 130.0940  10.7970   H        17 HIS    0.0000
  1595 HB2     -2.5910 131.6660  12.3570   H        17 HIS    0.0000
  1596 HB3     -1.6340 130.9900  13.6860   H        17 HIS    0.0000
  1597 HD2     -1.4200 133.8520  11.2590   H        17 HIS    0.0000
  1598 HE1      2.5950 133.0130  12.3450   H        17 HIS    0.0000
  1599 HE2      1.0450 134.6870  11.2290   H        17 HIS    0.0000
  1600 N        0.7220 129.0280  11.4840   N.am      8 LYS    0.0000
  1601 CA       1.8290 128.1010  11.7090   C.3       8 LYS    0.0000
  1602 C        2.7260 128.5310  12.8650   C.2       8 LYS    0.0000
  1603 O        3.3890 127.6850  13.4770   O.2       8 LYS    0.0000
  1604 H        0.7430 129.6410  10.6820   H         8 LYS    0.0000
  1605 CB       2.6620 127.9570  10.4500   C.3       8 LYS    0.0000
  1606 CG       2.0290 126.9240   9.5240   C.3       8 LYS    0.0000
  1607 CD       0.7080 127.4640   8.9860   C.3       8 LYS    0.0000
  1608 CE       0.0930 126.4450   8.0330   C.3       8 LYS    0.0000
  1609 NZ      -1.2000 126.9480   7.5470   N.4       8 LYS    0.0000
  1610 HA       1.4090 127.1250  11.9510   H         8 LYS    0.0000
  1611 HB2      2.7120 128.9190   9.9380   H         8 LYS    0.0000
  1612 HB3      3.6690 127.6370  10.7160   H         8 LYS    0.0000
  1613 HG2      2.7040 126.7200   8.6920   H         8 LYS    0.0000
  1614 HG3      1.8470 126.0030  10.0780   H         8 LYS    0.0000
  1615 HD2      0.8880 128.3980   8.4530   H         8 LYS    0.0000
  1616 HD3      0.0250 127.6450   9.8160   H         8 LYS    0.0000
  1617 HE2     -0.0590 125.5020   8.5580   H         8 LYS    0.0000
  1618 HE3      0.7620 126.2870   7.1880   H         8 LYS    0.0000
  1619 HZ1     -1.6080 126.2730   6.9150   H         8 LYS    0.0000
  1620 HZ2     -1.0600 127.8220   7.0600   H         8 LYS    0.0000
  1621 HZ3     -1.8210 127.0940   8.3300   H         8 LYS    0.0000
  1622 N        2.7720 129.8240  13.1770   N.am     13 SER    0.0000
  1623 CA       3.6640 130.2980  14.2270   C.3      13 SER    0.0000
  1624 C        2.8850 131.0680  15.2830   C.2      13 SER    0.0000
  1625 O        2.0080 130.5050  15.9460   O.2      13 SER    0.0000
  1626 H        2.1850 130.4810  12.6830   H        13 SER    0.0000
  1627 CB       4.7580 131.1770  13.6550   C.3      13 SER    0.0000
  1628 OG       4.1750 132.3800  13.1470   O.3      13 SER    0.0000
  1629 HA       4.1280 129.4340  14.7020   H        13 SER    0.0000
  1630 HB2      5.4760 131.4220  14.4370   H        13 SER    0.0000
  1631 HB3      5.2650 130.6490  12.8470   H        13 SER    0.0000
  1632 HG       4.2470 133.0740  13.8060   H        13 SER    0.0000
  1633 N        3.1950 132.3530  15.4420   N.am      3 ILE    0.0000
  1634 CA       2.5700 133.2130  16.4400   C.3       3 ILE    0.0000
  1635 C        2.1630 134.5130  15.7630   C.2       3 ILE    0.0000
  1636 O        2.8760 135.0220  14.8900   O.2       3 ILE    0.0000
  1637 CB       3.4980 133.4920  17.6490   C.3       3 ILE    0.0000
  1638 CG1      4.6360 134.4480  17.2750   C.3       3 ILE    0.0000
  1639 CG2      4.0440 132.2010  18.2380   C.3       3 ILE    0.0000
  1640 CD1      5.6130 134.7060  18.4000   C.3       3 ILE    0.0000
  1641 H        3.9000 132.7530  14.8400   H         3 ILE    0.0000
  1642 HA       1.6700 132.7190  16.8050   H         3 ILE    0.0000
  1643 HB       2.8990 133.9780  18.4190   H         3 ILE    0.0000
  1644 HG12     5.1840 134.0180  16.4360   H         3 ILE    0.0000
  1645 HG13     4.2050 135.3990  16.9610   H         3 ILE    0.0000
  1646 HG21     3.3260 131.3960  18.0800   H         3 ILE    0.0000
  1647 HG22     4.9850 131.9490  17.7500   H         3 ILE    0.0000
  1648 HG23     4.2130 132.3320  19.3070   H         3 ILE    0.0000
  1649 HD11     6.0770 135.6830  18.2620   H         3 ILE    0.0000
  1650 HD12     5.0830 134.6870  19.3520   H         3 ILE    0.0000
  1651 HD13     6.3830 133.9340  18.3970   H         3 ILE    0.0000
  1652 N        0.9990 135.0300  16.1360   N.am      3 ILE    0.0000
  1653 CA       0.5570 136.3450  15.6890   C.3       3 ILE    0.0000
  1654 C        0.7420 137.3050  16.8530   C.2       3 ILE    0.0000
  1655 O        0.4870 136.9590  18.0150   O.2       3 ILE    0.0000
  1656 CB      -0.8960 136.3260  15.1660   C.3       3 ILE    0.0000
  1657 CG1     -1.9170 136.5530  16.2780   C.3       3 ILE    0.0000
  1658 CG2     -1.1870 135.0100  14.4740   C.3       3 ILE    0.0000
  1659 CD1     -3.3430 136.6420  15.7820   C.3       3 ILE    0.0000
  1660 H        0.4000 134.4950  16.7490   H         3 ILE    0.0000
  1661 HA       1.2080 136.6650  14.8760   H         3 ILE    0.0000
  1662 HB      -1.0050 137.1270  14.4350   H         3 ILE    0.0000
  1663 HG12    -1.6710 137.4850  16.7870   H         3 ILE    0.0000
  1664 HG13    -1.8450 135.7330  16.9930   H         3 ILE    0.0000
  1665 HG21    -2.0700 135.1180  13.8440   H         3 ILE    0.0000
  1666 HG22    -0.3340 134.7270  13.8580   H         3 ILE    0.0000
  1667 HG23    -1.3660 134.2380  15.2220   H         3 ILE    0.0000
  1668 HD11    -4.0130 136.8040  16.6270   H         3 ILE    0.0000
  1669 HD12    -3.4330 137.4730  15.0830   H         3 ILE    0.0000
  1670 HD13    -3.6110 135.7130  15.2780   H         3 ILE    0.0000
  1671 N        1.2470 138.4890  16.5500   N.am     14 CYS    0.0000
  1672 CA       1.7050 139.4570  17.5340   C.3      14 CYS    0.0000
  1673 C        1.1090 140.8090  17.1940   C.2      14 CYS    0.0000
  1674 O        0.5560 140.9950  16.1050   O.2      14 CYS    0.0000
  1675 CB       3.2440 139.5210  17.5070   C.3      14 CYS    0.0000
  1676 SG       4.1130 138.1560  18.3180   S.3      14 CYS    0.0000
  1677 H        1.3190 138.7370  15.5740   H        14 CYS    0.0000
  1678 HA       1.3720 139.1520  18.5260   H        14 CYS    0.0000
  1679 HB2      3.5580 139.5420  16.4630   H        14 CYS    0.0000
  1680 HB3      3.5560 140.4530  17.9770   H        14 CYS    0.0000
  1681 HG       5.3180 138.0010  17.7620   H        14 CYS    0.0000
  1682 N        1.1770 141.7800  18.1120   N.am      2 PRO    0.0000
  1683 CA       0.6200 143.1010  17.7970   C.3       2 PRO    0.0000
  1684 C        1.3000 143.6910  16.5700   C.2       2 PRO    0.0000
  1685 O        2.5050 143.5310  16.3650   O.2       2 PRO    0.0000
  1686 CB       0.8990 143.9230  19.0630   C.3       2 PRO    0.0000
  1687 CG       1.9700 143.1790  19.7960   C.3       2 PRO    0.0000
  1688 CD       1.7530 141.7360  19.4690   C.3       2 PRO    0.0000
  1689 HA      -0.4540 143.0240  17.6290   H         2 PRO    0.0000
  1690 HB2      1.2430 144.9230  18.7990   H         2 PRO    0.0000
  1691 HB3     -0.0010 143.9850  19.6750   H         2 PRO    0.0000
  1692 HG2      1.8800 143.3430  20.8700   H         2 PRO    0.0000
  1693 HG3      2.9530 143.4980  19.4490   H         2 PRO    0.0000
  1694 HD2      1.0590 141.2760  20.1730   H         2 PRO    0.0000
  1695 HD3      2.7020 141.2000  19.4630   H         2 PRO    0.0000
  1696 N        0.5090 144.3710  15.7460   N.am      1 GLY    0.0000
  1697 CA       0.9740 144.7940  14.4450   C.3       1 GLY    0.0000
  1698 C        0.8400 143.7620  13.3470   C.2       1 GLY    0.0000
  1699 O        1.3650 143.9810  12.2490   O.2       1 GLY    0.0000
  1700 H       -0.4330 144.5960  16.0340   H         1 GLY    0.0000
  1701 HA2      2.0280 145.0580  14.5330   H         1 GLY    0.0000
  1702 HA3      0.4180 145.6850  14.1520   H         1 GLY    0.0000
  1703 N        0.1690 142.6420  13.6070   N.am      9 TYR    0.0000
  1704 CA      -0.0510 141.6380  12.5740   C.3       9 TYR    0.0000
  1705 C       -0.9510 142.1920  11.4770   C.2       9 TYR    0.0000
  1706 O       -2.0470 142.6910  11.7480   O.2       9 TYR    0.0000
  1707 CB      -0.6700 140.3830  13.1880   C.3       9 TYR    0.0000
  1708 CG      -0.9350 139.2610  12.2090   C.ar      9 TYR    0.0000
  1709 CD1      0.0870 138.4170  11.8000   C.ar      9 TYR    0.0000
  1710 CD2     -2.2110 139.0400  11.7060   C.ar      9 TYR    0.0000
  1711 CE1     -0.1500 137.3870  10.9130   C.ar      9 TYR    0.0000
  1712 CE2     -2.4580 138.0130  10.8170   C.ar      9 TYR    0.0000
  1713 CZ      -1.4240 137.1900  10.4240   C.ar      9 TYR    0.0000
  1714 OH      -1.6610 136.1640   9.5380   O.3       9 TYR    0.0000
  1715 H       -0.1940 142.4850  14.5360   H         9 TYR    0.0000
  1716 HA       0.9110 141.3730  12.1350   H         9 TYR    0.0000
  1717 HB2      0.0100 140.0100  13.9540   H         9 TYR    0.0000
  1718 HB3     -1.6120 140.6580  13.6630   H         9 TYR    0.0000
  1719 HD1      1.0860 138.5690  12.1820   H         9 TYR    0.0000
  1720 HD2     -3.0230 139.6820  12.0150   H         9 TYR    0.0000
  1721 HE1      0.6570 136.7390  10.6040   H         9 TYR    0.0000
  1722 HE2     -3.4550 137.8550  10.4320   H         9 TYR    0.0000
  1723 HH      -1.1240 136.2890   8.7520   H         9 TYR    0.0000
  1724 N       -0.4800 142.1100  10.2370   N.am     16 ASN    0.0000
  1725 CA      -1.2190 142.5960   9.0830   C.3      16 ASN    0.0000
  1726 C       -1.9730 141.4500   8.4220   C.2      16 ASN    0.0000
  1727 O       -1.4390 140.3470   8.2690   O.2      16 ASN    0.0000
  1728 CB      -0.2760 143.2500   8.0720   C.3      16 ASN    0.0000
  1729 CG      -0.3150 144.7620   8.1350   C.2      16 ASN    0.0000
  1730 OD1     -1.3820 145.3630   8.2660   O.2      16 ASN    0.0000
  1731 ND2      0.8530 145.3870   8.0400   N.am     16 ASN    0.0000
  1732 H        0.4280 141.6930  10.0900   H        16 ASN    0.0000
  1733 HA      -1.9410 143.3400   9.4190   H        16 ASN    0.0000
  1734 HB2      0.7420 142.9180   8.2780   H        16 ASN    0.0000
  1735 HB3     -0.5560 142.9300   7.0680   H        16 ASN    0.0000
  1736 HD21     1.7040 144.8540   7.9330   H        16 ASN    0.0000
  1737 HD22     0.8900 146.3960   8.0750   H        16 ASN    0.0000
  1738 N       -3.2150 141.7210   8.0260   N.am     18 ALA    0.0000
  1739 CA      -4.0530 140.7330   7.3610   C.3      18 ALA    0.0000
  1740 C       -5.2100 141.4550   6.6860   C.2      18 ALA    0.0000
  1741 O       -5.3930 142.6640   6.8480   O.2      18 ALA    0.0000
  1742 CB      -4.5660 139.6770   8.3450   C.3      18 ALA    0.0000
  1743 H       -3.5890 142.6440   8.1930   H        18 ALA    0.0000
  1744 HA      -3.4600 140.2340   6.5940   H        18 ALA    0.0000
  1745 HB1     -5.1880 138.9560   7.8140   H        18 ALA    0.0000
  1746 HB2     -3.7190 139.1620   8.7980   H        18 ALA    0.0000
  1747 HB3     -5.1560 140.1620   9.1230   H        18 ALA    0.0000
  1748 N       -5.9880 140.6970   5.9210   N.am      6 VAL    0.0000
  1749 CA      -7.1910 141.2240   5.2980   C.3       6 VAL    0.0000
  1750 C       -8.3720 140.9540   6.2240   C.2       6 VAL    0.0000
  1751 O       -8.3440 140.0460   7.0580   O.2       6 VAL    0.0000
  1752 CB      -7.4160 140.6100   3.9000   C.3       6 VAL    0.0000
  1753 CG1     -8.4040 141.4440   3.0960   C.3       6 VAL    0.0000
  1754 CG2     -6.0920 140.4760   3.1600   C.3       6 VAL    0.0000
  1755 H       -5.7370 139.7310   5.7690   H         6 VAL    0.0000
  1756 HA      -7.0780 142.3030   5.1870   H         6 VAL    0.0000
  1757 HB      -7.8370 139.6130   4.0290   H         6 VAL    0.0000
  1758 HG21    -6.2800 140.3980   2.0890   H         6 VAL    0.0000
  1759 HG22    -5.5730 139.5810   3.5030   H         6 VAL    0.0000
  1760 HG23    -5.4750 141.3520   3.3580   H         6 VAL    0.0000
  1761 HG11    -9.3420 141.5260   3.6450   H         6 VAL    0.0000
  1762 HG12    -8.5860 140.9640   2.1350   H         6 VAL    0.0000
  1763 HG13    -7.9910 142.4390   2.9330   H         6 VAL    0.0000
  1764 N       -9.4290 141.7510   6.0790   N.am      5 LEU    0.0000
  1765 CA     -10.5680 141.7000   6.9870   C.3       5 LEU    0.0000
  1766 C      -11.8490 141.6910   6.1690   C.2       5 LEU    0.0000
  1767 O      -12.1290 142.6500   5.4430   O.2       5 LEU    0.0000
  1768 CB     -10.5530 142.8910   7.9490   C.3       5 LEU    0.0000
  1769 CG     -11.8330 143.2020   8.7170   C.3       5 LEU    0.0000
  1770 CD1    -12.2120 141.9960   9.5500   C.3       5 LEU    0.0000
  1771 CD2    -11.6480 144.4250   9.5970   C.3       5 LEU    0.0000
  1772 H       -9.4420 142.4120   5.3150   H         5 LEU    0.0000
  1773 HA     -10.5150 140.7790   7.5670   H         5 LEU    0.0000
  1774 HB2     -9.7700 142.7050   8.6840   H         5 LEU    0.0000
  1775 HB3    -10.2770 143.7790   7.3810   H         5 LEU    0.0000
  1776 HG     -12.6320 143.4010   8.0030   H         5 LEU    0.0000
  1777 HD11   -13.1270 142.2090  10.1030   H         5 LEU    0.0000
  1778 HD12   -12.3740 141.1390   8.8960   H         5 LEU    0.0000
  1779 HD13   -11.4080 141.7710  10.2500   H         5 LEU    0.0000
  1780 HD21   -11.3760 145.2800   8.9790   H         5 LEU    0.0000
  1781 HD22   -10.8560 144.2340  10.3220   H         5 LEU    0.0000
  1782 HD23   -12.5790 144.6380  10.1230   H         5 LEU    0.0000
  1783 N      -12.6200 140.6120   6.2830   N.am     17 HIS    0.0000
  1784 CA     -13.8670 140.4400   5.5380   C.3      17 HIS    0.0000
  1785 C      -15.0410 140.5940   6.5010   C.2      17 HIS    0.0000
  1786 O      -15.3580 139.6730   7.2600   O.2      17 HIS    0.0000
  1787 CB     -13.9080 139.0820   4.8380   C.3      17 HIS    0.0000
  1788 CG     -12.8500 138.8990   3.7920   C.ar     17 HIS    0.0000
  1789 ND1    -11.5430 139.3000   3.9670   N.ar     17 HIS    0.0000
  1790 CD2    -12.9100 138.3470   2.5570   C.ar     17 HIS    0.0000
  1791 CE1    -10.8450 139.0080   2.8840   C.ar     17 HIS    0.0000
  1792 NE2    -11.6510 138.4300   2.0130   N.ar     17 HIS    0.0000
  1793 H      -12.3310 139.8780   6.9130   H        17 HIS    0.0000
  1794 HA     -13.9320 141.2230   4.7820   H        17 HIS    0.0000
  1795 HB2    -13.7820 138.3050   5.5920   H        17 HIS    0.0000
  1796 HB3    -14.8850 138.9600   4.3710   H        17 HIS    0.0000
  1797 HD2    -13.7840 137.9210   2.0870   H        17 HIS    0.0000
  1798 HE1     -9.7940 139.2080   2.7360   H        17 HIS    0.0000
  1799 HE2    -11.3850 138.1020   1.0950   H        17 HIS    0.0000
  1800 N      -15.6860 141.7590   6.4650   N.am      3 ILE    0.0000
  1801 CA     -16.9070 142.0190   7.2210   C.3       3 ILE    0.0000
  1802 C      -18.0140 142.2580   6.2090   C.2       3 ILE    0.0000
  1803 O      -17.9420 143.2130   5.4260   O.2       3 ILE    0.0000
  1804 CB     -16.7690 143.2260   8.1620   C.3       3 ILE    0.0000
  1805 CG1    -15.4380 143.1800   8.9030   C.3       3 ILE    0.0000
  1806 CG2    -17.9180 143.2450   9.1580   C.3       3 ILE    0.0000
  1807 CD1    -15.3450 144.1410  10.0680   C.3       3 ILE    0.0000
  1808 H      -15.3120 142.4980   5.8870   H         3 ILE    0.0000
  1809 HA     -17.1520 141.1360   7.8120   H         3 ILE    0.0000
  1810 HB     -16.8070 144.1390   7.5670   H         3 ILE    0.0000
  1811 HG12   -15.2920 142.1680   9.2820   H         3 ILE    0.0000
  1812 HG13   -14.6380 143.4080   8.1980   H         3 ILE    0.0000
  1813 HG21   -18.8250 142.8810   8.6750   H         3 ILE    0.0000
  1814 HG22   -18.0780 144.2650   9.5080   H         3 ILE    0.0000
  1815 HG23   -17.6750 142.6040  10.0050   H         3 ILE    0.0000
  1816 HD11   -14.2980 144.3680  10.2700   H         3 ILE    0.0000
  1817 HD12   -15.7950 143.6860  10.9510   H         3 ILE    0.0000
  1818 HD13   -15.8750 145.0610   9.8230   H         3 ILE    0.0000
  1819 N      -19.0450 141.4080   6.2450   N.am     17 HIS    0.0000
  1820 CA     -20.1110 141.3840   5.2450   C.3      17 HIS    0.0000
  1821 C      -19.5650 141.6430   3.8430   C.2      17 HIS    0.0000
  1822 O      -18.6000 140.9960   3.4220   O.2      17 HIS    0.0000
  1823 CB     -21.2350 142.3700   5.6070   C.3      17 HIS    0.0000
  1824 CG     -20.7790 143.7780   5.8400   C.ar     17 HIS    0.0000
  1825 ND1    -20.2560 144.1990   7.0440   N.ar     17 HIS    0.0000
  1826 CD2    -20.7850 144.8660   5.0330   C.ar     17 HIS    0.0000
  1827 CE1    -19.9480 145.4820   6.9650   C.ar     17 HIS    0.0000
  1828 NE2    -20.2590 145.9100   5.7550   N.ar     17 HIS    0.0000
  1829 H      -19.0900 140.7450   7.0060   H        17 HIS    0.0000
  1830 HA     -20.5410 140.3820   5.2490   H        17 HIS    0.0000
  1831 HB2    -21.9570 142.3770   4.7900   H        17 HIS    0.0000
  1832 HB3    -21.7340 142.0130   6.5080   H        17 HIS    0.0000
  1833 HD2    -21.1370 144.9050   4.0130   H        17 HIS    0.0000
  1834 HE1    -19.5160 146.0780   7.7550   H        17 HIS    0.0000
  1835 HE2    -20.1310 146.8520   5.4150   H        17 HIS    0.0000
  1836 N      -20.1650 142.5860   3.1150   N.am     11 THR    0.0000
  1837 CA     -19.6980 142.8790   1.7640   C.3      11 THR    0.0000
  1838 C      -18.3200 143.5340   1.7570   C.2      11 THR    0.0000
  1839 O      -17.5970 143.4330   0.7600   O.2      11 THR    0.0000
  1840 CB     -20.7070 143.7670   1.0390   C.3      11 THR    0.0000
  1841 OG1    -20.7400 145.0600   1.6580   O.3      11 THR    0.0000
  1842 CG2    -22.0940 143.1430   1.0860   C.3      11 THR    0.0000
  1843 H      -20.9450 143.0990   3.5000   H        11 THR    0.0000
  1844 HA     -19.6260 141.9370   1.2200   H        11 THR    0.0000
  1845 HB     -20.4010 143.8780  -0.0010   H        11 THR    0.0000
  1846 HG1    -21.0520 145.7110   1.0250   H        11 THR    0.0000
  1847 HG21   -22.8010 143.7880   0.5650   H        11 THR    0.0000
  1848 HG22   -22.0690 142.1660   0.6030   H        11 THR    0.0000
  1849 HG23   -22.4050 143.0270   2.1240   H        11 THR    0.0000
  1850 N      -17.9410 144.2140   2.8370   N.am     14 CYS    0.0000
  1851 CA     -16.6890 144.9590   2.8440   C.3      14 CYS    0.0000
  1852 C      -15.4740 144.0440   2.9190   C.2      14 CYS    0.0000
  1853 O      -15.4800 143.0270   3.6190   O.2      14 CYS    0.0000
  1854 CB     -16.6390 145.9250   4.0220   C.3      14 CYS    0.0000
  1855 SG     -14.9750 146.5890   4.2650   S.3      14 CYS    0.0000
  1856 H      -18.5270 144.2130   3.6600   H        14 CYS    0.0000
  1857 HA     -16.6280 145.5370   1.9220   H        14 CYS    0.0000
  1858 HB2    -16.9450 145.3980   4.9250   H        14 CYS    0.0000
  1859 HB3    -17.3290 146.7490   3.8380   H        14 CYS    0.0000
  1860 HG     -14.7100 146.6590   5.5730   H        14 CYS    0.0000
  1861 N      -14.4150 144.4330   2.2080   N.am      3 ILE    0.0000
  1862 CA     -13.1030 143.7980   2.2940   C.3       3 ILE    0.0000
  1863 C      -12.0880 144.9360   2.3170   C.2       3 ILE    0.0000
  1864 O      -11.9330 145.6490   1.3190   O.2       3 ILE    0.0000
  1865 CB     -12.8090 142.8420   1.1260   C.3       3 ILE    0.0000
  1866 CG1    -13.4680 141.4730   1.3320   C.3       3 ILE    0.0000
  1867 CG2    -11.3050 142.6500   0.9580   C.3       3 ILE    0.0000
  1868 CD1    -14.9330 141.4090   0.9660   C.3       3 ILE    0.0000
  1869 H      -14.5270 145.2110   1.5740   H         3 ILE    0.0000
  1870 HA     -13.0370 143.2450   3.2310   H         3 ILE    0.0000
  1871 HB     -13.2050 143.2820   0.2110   H         3 ILE    0.0000
  1872 HG12   -13.3700 141.2050   2.3840   H         3 ILE    0.0000
  1873 HG13   -12.9300 140.7360   0.7360   H         3 ILE    0.0000
  1874 HG21   -11.1150 141.7250   0.4130   H         3 ILE    0.0000
  1875 HG22   -10.8340 142.5960   1.9390   H         3 ILE    0.0000
  1876 HG23   -10.8910 143.4910   0.4020   H         3 ILE    0.0000
  1877 HD11   -15.3090 140.4020   1.1460   H         3 ILE    0.0000
  1878 HD12   -15.4910 142.1190   1.5760   H         3 ILE    0.0000
  1879 HD13   -15.0560 141.6600  -0.0880   H         3 ILE    0.0000
  1880 N      -11.4190 145.1280   3.4530   N.am     12 GLU    0.0000
  1881 CA     -10.3950 146.1590   3.5770   C.3      12 GLU    0.0000
  1882 C       -9.2990 145.6580   4.5060   C.2      12 GLU    0.0000
  1883 O       -9.5810 144.9920   5.5050   O.2      12 GLU    0.0000
  1884 CB     -10.9680 147.4870   4.0930   C.3      12 GLU    0.0000
  1885 CG     -11.7380 148.2830   3.0430   C.3      12 GLU    0.0000
  1886 CD     -12.2400 149.6200   3.5590   C.2      12 GLU    0.0000
  1887 OE1    -11.8980 149.9880   4.7030   O.co2    12 GLU    0.0000
  1888 OE2    -12.9760 150.3070   2.8190   O.co2    12 GLU    0.0000
  1889 H      -11.6270 144.5440   4.2500   H        12 GLU    0.0000
  1890 HA      -9.9600 146.3320   2.5930   H        12 GLU    0.0000
  1891 HB2    -11.6430 147.2700   4.9210   H        12 GLU    0.0000
  1892 HB3    -10.1470 148.1010   4.4640   H        12 GLU    0.0000
  1893 HG2    -12.5950 147.6920   2.7200   H        12 GLU    0.0000
  1894 HG3    -11.0870 148.4580   2.1860   H        12 GLU    0.0000
  1895 N       -8.0520 145.9820   4.1640   N.am     12 GLU    0.0000
  1896 CA      -6.9070 145.5510   4.9570   C.3      12 GLU    0.0000
  1897 C       -7.0160 146.0570   6.3900   C.2      12 GLU    0.0000
  1898 O       -7.6470 147.0810   6.6680   O.2      12 GLU    0.0000
  1899 H       -7.8970 146.5390   3.3360   H        12 GLU    0.0000
  1900 CB      -5.6120 146.0530   4.3460   C.3      12 GLU    0.0000
  1901 CG      -5.4050 145.4210   2.9900   C.3      12 GLU    0.0000
  1902 CD      -6.1210 146.2510   1.9270   C.2      12 GLU    0.0000
  1903 OE2     -5.9120 145.9480   0.7220   O.co2    12 GLU    0.0000
  1904 OE1     -6.8700 147.1810   2.3300   O.co2    12 GLU    0.0000
  1905 HA      -6.8850 144.4610   4.9730   H        12 GLU    0.0000
  1906 HB2     -5.6610 147.1360   4.2360   H        12 GLU    0.0000
  1907 HB3     -4.7790 145.7920   4.9980   H        12 GLU    0.0000
  1908 HG2     -5.8100 144.4100   2.9950   H        12 GLU    0.0000
  1909 HG3     -4.3390 145.3850   2.7660   H        12 GLU    0.0000
  1910 N       -6.3840 145.3270   7.3070   N.am      6 VAL    0.0000
  1911 CA      -6.5320 145.5940   8.7310   C.3       6 VAL    0.0000
  1912 C       -5.2210 145.2700   9.4320   C.2       6 VAL    0.0000
  1913 O       -4.4170 144.4650   8.9540   O.2       6 VAL    0.0000
  1914 CB      -7.6990 144.7760   9.3400   C.3       6 VAL    0.0000
  1915 CG1     -7.3630 143.2940   9.3420   C.3       6 VAL    0.0000
  1916 CG2     -8.0580 145.2680  10.7350   C.3       6 VAL    0.0000
  1917 H       -5.7870 144.5690   7.0070   H         6 VAL    0.0000
  1918 HA      -6.7440 146.6550   8.8650   H         6 VAL    0.0000
  1919 HB      -8.5720 144.9180   8.7030   H         6 VAL    0.0000
  1920 HG11    -6.3140 143.1590   9.6060   H         6 VAL    0.0000
  1921 HG12    -7.5440 142.8790   8.3500   H         6 VAL    0.0000
  1922 HG13    -7.9900 142.7800  10.0710   H         6 VAL    0.0000
  1923 HG21    -8.2930 146.3320  10.6960   H         6 VAL    0.0000
  1924 HG22    -8.9250 144.7180  11.1020   H         6 VAL    0.0000
  1925 HG23    -7.2140 145.1060  11.4060   H         6 VAL    0.0000
  1926 N       -5.0090 145.9220  10.5700   N.am     12 GLU    0.0000
  1927 CA      -3.8900 145.6600  11.4590   C.3      12 GLU    0.0000
  1928 C       -4.4360 145.5360  12.8700   C.2      12 GLU    0.0000
  1929 O       -5.2910 146.3270  13.2810   O.2      12 GLU    0.0000
  1930 CB      -2.8490 146.7850  11.3930   C.3      12 GLU    0.0000
  1931 CG      -1.8020 146.7550  12.5010   C.3      12 GLU    0.0000
  1932 CD      -0.8760 147.9580  12.4580   C.2      12 GLU    0.0000
  1933 OE1     -0.6990 148.5350  11.3620   O.co2    12 GLU    0.0000
  1934 OE2     -0.3360 148.3330  13.5200   O.co2    12 GLU    0.0000
  1935 H       -5.6650 146.6430  10.8330   H        12 GLU    0.0000
  1936 HA      -3.4190 144.7190  11.1740   H        12 GLU    0.0000
  1937 HB2     -2.3320 146.7120  10.4360   H        12 GLU    0.0000
  1938 HB3     -3.3700 147.7420  11.4340   H        12 GLU    0.0000
  1939 HG2     -2.3120 146.7410  13.4640   H        12 GLU    0.0000
  1940 HG3     -1.2080 145.8470  12.4020   H        12 GLU    0.0000
  1941 N       -3.9550 144.5470  13.6120   N.am      3 ILE    0.0000
  1942 CA      -4.3380 144.3990  15.0100   C.3       3 ILE    0.0000
  1943 C       -3.3540 145.2210  15.8400   C.2       3 ILE    0.0000
  1944 O       -2.1650 144.9020  15.9350   O.2       3 ILE    0.0000
  1945 CB      -4.4170 142.9240  15.4400   C.3       3 ILE    0.0000
  1946 CG1     -3.0530 142.2330  15.5110   C.3       3 ILE    0.0000
  1947 CG2     -5.3360 142.1460  14.5080   C.3       3 ILE    0.0000
  1948 CD1     -3.1520 140.7380  15.7550   C.3       3 ILE    0.0000
  1949 H       -3.3120 143.8850  13.2010   H         3 ILE    0.0000
  1950 HA      -5.3280 144.8370  15.1340   H         3 ILE    0.0000
  1951 HB      -4.8550 142.8940  16.4380   H         3 ILE    0.0000
  1952 HG12    -2.5330 142.3960  14.5670   H         3 ILE    0.0000
  1953 HG13    -2.4720 142.6830  16.3160   H         3 ILE    0.0000
  1954 HG21    -6.1070 142.8110  14.1180   H         3 ILE    0.0000
  1955 HG22    -5.8050 141.3300  15.0580   H         3 ILE    0.0000
  1956 HG23    -4.7550 141.7390  13.6810   H         3 ILE    0.0000
  1957 HD11    -2.2370 140.3860  16.2320   H         3 ILE    0.0000
  1958 HD12    -3.2870 140.2230  14.8040   H         3 ILE    0.0000
  1959 HD13    -4.0030 140.5310  16.4040   H         3 ILE    0.0000
  1960 N       -3.8440 146.3350  16.3850   N.am     11 THR    0.0000
  1961 CA      -2.9570 147.2930  17.0340   C.3      11 THR    0.0000
  1962 C       -2.3970 146.7220  18.3270   C.2      11 THR    0.0000
  1963 O       -1.1770 146.6890  18.5300   O.2      11 THR    0.0000
  1964 CB      -3.7020 148.6010  17.3010   C.3      11 THR    0.0000
  1965 OG1     -4.9440 148.3180  17.9590   O.3      11 THR    0.0000
  1966 CG2     -3.9820 149.3320  16.0010   C.3      11 THR    0.0000
  1967 H       -4.8370 146.5160  16.3480   H        11 THR    0.0000
  1968 HA      -2.1250 147.5020  16.3610   H        11 THR    0.0000
  1969 HB      -3.0920 149.2350  17.9440   H        11 THR    0.0000
  1970 HG1     -5.3700 147.5710  17.5320   H        11 THR    0.0000
  1971 HG21    -4.5130 150.2600  16.2130   H        11 THR    0.0000
  1972 HG22    -4.5940 148.7030  15.3550   H        11 THR    0.0000
  1973 HG23    -3.0400 149.5580  15.5010   H        11 THR    0.0000
  1974 N       -3.2770 146.2720  19.2140   N.am     18 ALA    0.0000
  1975 CA      -2.8700 145.5060  20.3760   C.3      18 ALA    0.0000
  1976 C       -4.0100 144.5870  20.7820   C.2      18 ALA    0.0000
  1977 O       -5.1850 144.8970  20.5680   O.2      18 ALA    0.0000
  1978 CB      -2.4820 146.4130  21.5420   C.3      18 ALA    0.0000
  1979 H       -4.2580 146.4690  19.0750   H        18 ALA    0.0000
  1980 HA      -2.0080 144.8950  20.1070   H        18 ALA    0.0000
  1981 HB1     -2.1830 145.8020  22.3940   H        18 ALA    0.0000
  1982 HB2     -3.3350 147.0320  21.8200   H        18 ALA    0.0000
  1983 HB3     -1.6510 147.0530  21.2440   H        18 ALA    0.0000
  1984 N       -3.6470 143.4570  21.3720   N.am      5 LEU    0.0000
  1985 CA      -4.6070 142.5110  21.9150   C.3       5 LEU    0.0000
  1986 C       -4.6580 142.6190  23.4360   C.2       5 LEU    0.0000
  1987 O       -3.6580 142.9180  24.0950   O.2       5 LEU    0.0000
  1988 CB      -4.2810 141.0890  21.4400   C.3       5 LEU    0.0000
  1989 CG      -2.8220 140.6140  21.3440   C.3       5 LEU    0.0000
  1990 CD1     -2.0750 140.6380  22.6580   C.3       5 LEU    0.0000
  1991 CD2     -2.7540 139.2280  20.7280   C.3       5 LEU    0.0000
  1992 H       -2.6620 143.2450  21.4470   H         5 LEU    0.0000
  1993 HA      -5.5910 142.7750  21.5280   H         5 LEU    0.0000
  1994 HB2     -4.7870 140.4080  22.1240   H         5 LEU    0.0000
  1995 HB3     -4.7330 140.9610  20.4560   H         5 LEU    0.0000
  1996 HG      -2.3050 141.2940  20.6670   H         5 LEU    0.0000
  1997 HD21    -3.2960 139.2230  19.7820   H         5 LEU    0.0000
  1998 HD22    -1.7120 138.9600  20.5510   H         5 LEU    0.0000
  1999 HD23    -3.2050 138.5050  21.4080   H         5 LEU    0.0000
  2000 HD11    -1.2210 141.3100  22.5790   H         5 LEU    0.0000
  2001 HD12    -2.7400 140.9880  23.4470   H         5 LEU    0.0000
  2002 HD13    -1.7260 139.6330  22.8960   H         5 LEU    0.0000
  2003 N       -5.8560 142.4130  23.9830   N.am      3 ILE    0.0000
  2004 CA      -6.1670 142.8290  25.3460   C.3       3 ILE    0.0000
  2005 C       -5.9980 141.6830  26.3340   C.2       3 ILE    0.0000
  2006 O       -5.1680 141.7590  27.2470   O.2       3 ILE    0.0000
  2007 CB      -7.5900 143.4130  25.4250   C.3       3 ILE    0.0000
  2008 CG1     -7.8010 144.4380  24.3080   C.3       3 ILE    0.0000
  2009 CG2     -7.8300 144.0370  26.7890   C.3       3 ILE    0.0000
  2010 CD1     -9.0530 145.2760  24.4640   C.3       3 ILE    0.0000
  2011 H       -6.5710 141.9540  23.4360   H         3 ILE    0.0000
  2012 HA      -5.4660 143.6160  25.6240   H         3 ILE    0.0000
  2013 HB      -8.3040 142.6010  25.2870   H         3 ILE    0.0000
  2014 HG12    -6.9410 145.1080  24.2920   H         3 ILE    0.0000
  2015 HG13    -7.8510 143.9110  23.3550   H         3 ILE    0.0000
  2016 HG21    -7.3070 143.4590  27.5510   H         3 ILE    0.0000
  2017 HG22    -7.4570 145.0610  26.7910   H         3 ILE    0.0000
  2018 HG23    -8.8980 144.0400  27.0040   H         3 ILE    0.0000
  2019 HD11    -9.3610 145.6540  23.4890   H         3 ILE    0.0000
  2020 HD12    -8.8480 146.1140  25.1310   H         3 ILE    0.0000
  2021 HD13    -9.8500 144.6630  24.8850   H         3 ILE    0.0000
  2022 N       -6.7830 140.6200  26.1710   N.am     14 CYS    0.0000
  2023 CA      -6.8870 139.6040  27.2100   C.3      14 CYS    0.0000
  2024 C       -7.2240 138.2540  26.5990   C.2      14 CYS    0.0000
  2025 O       -8.2040 138.1310  25.8590   O.2      14 CYS    0.0000
  2026 CB      -7.9520 139.9860  28.2470   C.3      14 CYS    0.0000
  2027 SG      -7.4070 141.1930  29.4840   S.3      14 CYS    0.0000
  2028 H       -7.3130 140.5170  25.3170   H        14 CYS    0.0000
  2029 HA      -5.9240 139.5250  27.7150   H        14 CYS    0.0000
  2030 HB2     -8.8070 140.4060  27.7170   H        14 CYS    0.0000
  2031 HB3     -8.2740 139.0820  28.7630   H        14 CYS    0.0000
  2032 HG      -6.0970 141.4160  29.3430   H        14 CYS    0.0000
  2033 N       -6.4060 137.2500  26.9070   N.am      5 LEU    0.0000
  2034 CA      -6.7500 135.8760  26.5770   C.3       5 LEU    0.0000
  2035 C       -8.0210 135.4500  27.3110   C.2       5 LEU    0.0000
  2036 O       -8.4470 136.0690  28.2900   O.2       5 LEU    0.0000
  2037 CB      -5.6020 134.9330  26.9380   C.3       5 LEU    0.0000
  2038 CG      -4.2890 135.0910  26.1720   C.3       5 LEU    0.0000
  2039 CD1     -3.2320 134.1640  26.7450   C.3       5 LEU    0.0000
  2040 CD2     -4.4930 134.8240  24.6900   C.3       5 LEU    0.0000
  2041 H       -5.5340 137.4450  27.3770   H         5 LEU    0.0000
  2042 HA      -6.9300 135.8110  25.5040   H         5 LEU    0.0000
  2043 HB2     -5.3820 135.0780  27.9960   H         5 LEU    0.0000
  2044 HB3     -5.9510 133.9090  26.8030   H         5 LEU    0.0000
  2045 HG      -3.9450 136.1180  26.2910   H         5 LEU    0.0000
  2046 HD21    -5.2550 135.4990  24.3000   H         5 LEU    0.0000
  2047 HD22    -4.8150 133.7920  24.5480   H         5 LEU    0.0000
  2048 HD23    -3.5550 134.9880  24.1590   H         5 LEU    0.0000
  2049 HD11    -2.3020 134.2860  26.1910   H         5 LEU    0.0000
  2050 HD12    -3.5710 133.1310  26.6620   H         5 LEU    0.0000
  2051 HD13    -3.0650 134.4080  27.7940   H         5 LEU    0.0000
  2052 N       -8.6410 134.3830  26.8140   N.am      6 VAL    0.0000
  2053 CA      -9.7940 133.7750  27.4680   C.3       6 VAL    0.0000
  2054 C       -9.7260 132.2680  27.2640   C.2       6 VAL    0.0000
  2055 O       -9.5480 131.7920  26.1370   O.2       6 VAL    0.0000
  2056 CB     -11.1270 134.3490  26.9460   C.3       6 VAL    0.0000
  2057 CG1    -11.1280 134.4140  25.4360   C.3       6 VAL    0.0000
  2058 CG2    -12.2970 133.5200  27.4550   C.3       6 VAL    0.0000
  2059 H       -8.3010 133.9800  25.9530   H         6 VAL    0.0000
  2060 HA      -9.7280 133.9790  28.5370   H         6 VAL    0.0000
  2061 HB     -11.2350 135.3630  27.3310   H         6 VAL    0.0000
  2062 HG21   -12.2740 133.4880  28.5440   H         6 VAL    0.0000
  2063 HG22   -13.2330 133.9710  27.1250   H         6 VAL    0.0000
  2064 HG23   -12.2230 132.5070  27.0610   H         6 VAL    0.0000
  2065 HG11   -10.2820 135.0120  25.0970   H         6 VAL    0.0000
  2066 HG12   -11.0460 133.4060  25.0290   H         6 VAL    0.0000
  2067 HG13   -12.0560 134.8700  25.0930   H         6 VAL    0.0000
  2068 N       -9.8540 131.5190  28.3560   N.am      7 ASP    0.0000
  2069 CA      -9.7050 130.0740  28.3100   C.3       7 ASP    0.0000
  2070 C      -10.9770 129.4510  27.7480   C.2       7 ASP    0.0000
  2071 O      -12.0890 129.8940  28.0500   O.2       7 ASP    0.0000
  2072 CB      -9.3960 129.5350  29.7130   C.3       7 ASP    0.0000
  2073 CG      -9.6960 128.0470  29.8710   C.2       7 ASP    0.0000
  2074 OD1     -9.6200 127.2900  28.8780   O.co2     7 ASP    0.0000
  2075 OD2    -10.0080 127.6300  31.0070   O.co2     7 ASP    0.0000
  2076 H      -10.0600 131.9650  29.2380   H         7 ASP    0.0000
  2077 HA      -8.8730 129.8290  27.6500   H         7 ASP    0.0000
  2078 HB2     -8.3380 129.6980  29.9200   H         7 ASP    0.0000
  2079 HB3     -9.9860 130.0920  30.4410   H         7 ASP    0.0000
  2080 N      -10.8060 128.4160  26.9220   N.am      8 LYS    0.0000
  2081 CA     -11.9480 127.8180  26.2380   C.3       8 LYS    0.0000
  2082 C      -12.7980 126.9780  27.1850   C.2       8 LYS    0.0000
  2083 O      -14.0240 126.9260  27.0400   O.2       8 LYS    0.0000
  2084 CB     -11.4780 126.9600  25.0640   C.3       8 LYS    0.0000
  2085 CG     -10.9500 127.7230  23.8660   C.3       8 LYS    0.0000
  2086 CD     -10.6840 126.7600  22.7170   C.3       8 LYS    0.0000
  2087 CE     -10.1730 127.4720  21.4760   C.3       8 LYS    0.0000
  2088 NZ     -10.1750 126.5660  20.2930   N.4       8 LYS    0.0000
  2089 H       -9.8790 128.0440  26.7690   H         8 LYS    0.0000
  2090 HA     -12.5700 128.6230  25.8450   H         8 LYS    0.0000
  2091 HB2    -10.6820 126.3070  25.4230   H         8 LYS    0.0000
  2092 HB3    -12.3110 126.3390  24.7360   H         8 LYS    0.0000
  2093 HG2    -11.6880 128.4630  23.5550   H         8 LYS    0.0000
  2094 HG3    -10.0230 128.2280  24.1380   H         8 LYS    0.0000
  2095 HD2     -9.9380 126.0320  23.0350   H         8 LYS    0.0000
  2096 HD3    -11.6080 126.2370  22.4710   H         8 LYS    0.0000
  2097 HE2     -9.1550 127.8160  21.6580   H         8 LYS    0.0000
  2098 HE3    -10.8100 128.3320  21.2690   H         8 LYS    0.0000
  2099 HZ1     -9.2560 126.1640  20.1750   H         8 LYS    0.0000
  2100 HZ2    -10.4210 127.0920  19.4670   H         8 LYS    0.0000
  2101 HZ3    -10.8490 125.8280  20.4360   H         8 LYS    0.0000
  2102 N      -12.1670 126.2860  28.1360   N.am      8 LYS    0.0000
  2103 CA     -12.9180 125.4270  29.0470   C.3       8 LYS    0.0000
  2104 C      -13.9060 126.2300  29.8870   C.2       8 LYS    0.0000
  2105 O      -15.0800 125.8610  30.0100   O.2       8 LYS    0.0000
  2106 CB     -11.9560 124.6440  29.9410   C.3       8 LYS    0.0000
  2107 CG     -11.4320 123.3650  29.3090   C.3       8 LYS    0.0000
  2108 CD     -10.7170 122.4960  30.3300   C.3       8 LYS    0.0000
  2109 CE     -11.1980 121.0530  30.2590   C.3       8 LYS    0.0000
  2110 NZ     -12.6110 120.9080  30.7140   N.4       8 LYS    0.0000
  2111 H      -11.1640 126.3570  28.2260   H         8 LYS    0.0000
  2112 HA     -13.4840 124.7120  28.4500   H         8 LYS    0.0000
  2113 HB2    -11.1060 125.2850  30.1740   H         8 LYS    0.0000
  2114 HB3    -12.4680 124.3910  30.8690   H         8 LYS    0.0000
  2115 HG2    -12.2700 122.8060  28.8920   H         8 LYS    0.0000
  2116 HG3    -10.7380 123.6200  28.5080   H         8 LYS    0.0000
  2117 HD2     -9.6460 122.5240  30.1320   H         8 LYS    0.0000
  2118 HD3    -10.9070 122.8880  31.3290   H         8 LYS    0.0000
  2119 HE2    -10.5600 120.4390  30.8940   H         8 LYS    0.0000
  2120 HE3    -11.1180 120.7020  29.2300   H         8 LYS    0.0000
  2121 HZ1    -12.8880 119.9390  30.6510   H         8 LYS    0.0000
  2122 HZ2    -13.2130 121.4690  30.1280   H         8 LYS    0.0000
  2123 HZ3    -12.6900 121.2190  31.6720   H         8 LYS    0.0000
  2124 N      -13.4470 127.3370  30.4710   N.am     13 SER    0.0000
  2125 CA     -14.2330 128.1050  31.4310   C.3      13 SER    0.0000
  2126 C      -14.9680 129.2750  30.7850   C.2      13 SER    0.0000
  2127 O      -16.1900 129.3960  30.9050   O.2      13 SER    0.0000
  2128 CB     -13.3190 128.6240  32.5510   C.3      13 SER    0.0000
  2129 OG     -12.0670 129.0470  32.0380   O.3      13 SER    0.0000
  2130 H      -12.5170 127.6570  30.2400   H        13 SER    0.0000
  2131 HA     -14.9740 127.4400  31.8750   H        13 SER    0.0000
  2132 HB2    -13.8040 129.4670  33.0430   H        13 SER    0.0000
  2133 HB3    -13.1580 127.8290  33.2790   H        13 SER    0.0000
  2134 HG     -11.3750 128.4640  32.3590   H        13 SER    0.0000
  2135 N      -14.2300 130.1480  30.1080   N.am      1 GLY    0.0000
  2136 CA     -14.6900 131.4830  29.7880   C.3       1 GLY    0.0000
  2137 C      -13.9110 132.5410  30.5250   C.2       1 GLY    0.0000
  2138 O      -14.2330 133.7310  30.4130   O.2       1 GLY    0.0000
  2139 H      -13.3080 129.8680  29.8030   H         1 GLY    0.0000
  2140 HA2    -14.5780 131.6460  28.7160   H         1 GLY    0.0000
  2141 HA3    -15.7440 131.5690  30.0520   H         1 GLY    0.0000
  2142 N      -12.8950 132.1290  31.2770   N.am     12 GLU    0.0000
  2143 CA     -12.1580 132.9880  32.1930   C.3      12 GLU    0.0000
  2144 C      -11.3530 134.0100  31.4020   C.2      12 GLU    0.0000
  2145 O      -10.3790 133.6560  30.7310   O.2      12 GLU    0.0000
  2146 CB     -11.2540 132.1200  33.0640   C.3      12 GLU    0.0000
  2147 CG     -10.2000 132.8530  33.8690   C.3      12 GLU    0.0000
  2148 CD      -9.6280 131.9860  34.9760   C.2      12 GLU    0.0000
  2149 OE1     -8.6490 132.4120  35.6240   O.co2    12 GLU    0.0000
  2150 OE2    -10.1590 130.8760  35.1960   O.co2    12 GLU    0.0000
  2151 H      -12.6170 131.1600  31.2090   H        12 GLU    0.0000
  2152 HA     -12.8670 133.5140  32.8330   H        12 GLU    0.0000
  2153 HB2    -11.8890 131.5760  33.7640   H        12 GLU    0.0000
  2154 HB3    -10.7520 131.3960  32.4220   H        12 GLU    0.0000
  2155 HG2     -9.3910 133.1510  33.2020   H        12 GLU    0.0000
  2156 HG3    -10.6450 133.7450  34.3100   H        12 GLU    0.0000
  2157 N      -11.7680 135.2740  31.4630   N.am      8 LYS    0.0000
  2158 CA     -10.9450 136.3520  30.9330   C.3       8 LYS    0.0000
  2159 C       -9.5930 136.3580  31.6330   C.2       8 LYS    0.0000
  2160 O       -9.5200 136.3370  32.8660   O.2       8 LYS    0.0000
  2161 CB     -11.6440 137.6980  31.1220   C.3       8 LYS    0.0000
  2162 CG     -12.0770 138.3790  29.8310   C.3       8 LYS    0.0000
  2163 CD     -13.4190 137.8610  29.3380   C.3       8 LYS    0.0000
  2164 CE     -13.9430 138.7130  28.1920   C.3       8 LYS    0.0000
  2165 NZ     -14.1870 140.1210  28.6150   N.4       8 LYS    0.0000
  2166 H      -12.6620 135.4870  31.8810   H         8 LYS    0.0000
  2167 HA     -10.7890 136.1840  29.8680   H         8 LYS    0.0000
  2168 HB2    -10.9590 138.3660  31.6440   H         8 LYS    0.0000
  2169 HB3    -12.5240 137.5470  31.7470   H         8 LYS    0.0000
  2170 HG2    -12.1570 139.4510  30.0080   H         8 LYS    0.0000
  2171 HG3    -11.3230 138.2000  29.0640   H         8 LYS    0.0000
  2172 HD2    -14.1350 137.8880  30.1590   H         8 LYS    0.0000
  2173 HD3    -13.3030 136.8320  28.9970   H         8 LYS    0.0000
  2174 HE2    -13.2090 138.7090  27.3860   H         8 LYS    0.0000
  2175 HE3    -14.8760 138.2840  27.8270   H         8 LYS    0.0000
  2176 HZ1    -14.5330 140.6540  27.8300   H         8 LYS    0.0000
  2177 HZ2    -13.3230 140.5280  28.9430   H         8 LYS    0.0000
  2178 HZ3    -14.8700 140.1350  29.3590   H         8 LYS    0.0000
  2179 N       -8.5200 136.3700  30.8450   N.am     13 SER    0.0000
  2180 CA      -7.1880 136.2880  31.4240   C.3      13 SER    0.0000
  2181 C       -6.9000 137.5130  32.2840   C.2      13 SER    0.0000
  2182 O       -7.4080 138.6100  32.0380   O.2      13 SER    0.0000
  2183 CB      -6.1300 136.1600  30.3290   C.3      13 SER    0.0000
  2184 OG      -4.8220 136.2170  30.8710   O.3      13 SER    0.0000
  2185 H       -8.6310 136.4360  29.8430   H        13 SER    0.0000
  2186 HA      -7.1400 135.4020  32.0570   H        13 SER    0.0000
  2187 HB2     -6.2610 135.2070  29.8170   H        13 SER    0.0000
  2188 HB3     -6.2560 136.9710  29.6120   H        13 SER    0.0000
  2189 HG      -4.5070 137.1240  30.8520   H        13 SER    0.0000
  2190 N       -6.0660 137.3090  33.3020   N.am      8 LYS    0.0000
  2191 CA      -5.7240 138.3850  34.2230   C.3       8 LYS    0.0000
  2192 C       -4.7340 139.3540  33.5910   C.2       8 LYS    0.0000
  2193 O       -4.8930 140.5740  33.7050   O.2       8 LYS    0.0000
  2194 CB      -5.1610 137.8260  35.5380   C.3       8 LYS    0.0000
  2195 CG      -3.9540 136.8750  35.4370   C.3       8 LYS    0.0000
  2196 CD      -4.2790 135.4830  34.9040   C.3       8 LYS    0.0000
  2197 CE      -3.2260 134.4730  35.3290   C.3       8 LYS    0.0000
  2198 NZ      -3.3260 133.2090  34.5500   N.4       8 LYS    0.0000
  2199 H       -5.6640 136.3930  33.4380   H         8 LYS    0.0000
  2200 HA      -6.6360 138.9360  34.4530   H         8 LYS    0.0000
  2201 HB2     -4.8600 138.6740  36.1530   H         8 LYS    0.0000
  2202 HB3     -5.9640 137.3010  36.0550   H         8 LYS    0.0000
  2203 HG2     -3.2190 137.3290  34.7720   H         8 LYS    0.0000
  2204 HG3     -3.5100 136.7720  36.4270   H         8 LYS    0.0000
  2205 HD2     -5.2480 135.1710  35.2930   H         8 LYS    0.0000
  2206 HD3     -4.3240 135.5180  33.8150   H         8 LYS    0.0000
  2207 HE2     -3.3610 134.2470  36.3870   H         8 LYS    0.0000
  2208 HE3     -2.2370 134.9060  35.1800   H         8 LYS    0.0000
  2209 HZ1     -2.6130 132.5650  34.8600   H         8 LYS    0.0000
  2210 HZ2     -4.2370 132.7970  34.6930   H         8 LYS    0.0000
  2211 HZ3     -3.1970 133.4080  33.5680   H         8 LYS    0.0000
  2212 N       -3.7160 138.8280  32.9170   N.am     11 THR    0.0000
  2213 CA      -2.6510 139.6320  32.3410   C.3      11 THR    0.0000
  2214 C       -2.9100 139.8810  30.8610   C.2      11 THR    0.0000
  2215 O       -3.6370 139.1400  30.1950   O.2      11 THR    0.0000
  2216 CB      -1.3010 138.9260  32.4950   C.3      11 THR    0.0000
  2217 OG1     -1.2630 137.7860  31.6300   O.3      11 THR    0.0000
  2218 CG2     -1.1230 138.4310  33.9140   C.3      11 THR    0.0000
  2219 H       -3.6810 137.8250  32.8000   H        11 THR    0.0000
  2220 HA      -2.6110 140.5900  32.8590   H        11 THR    0.0000
  2221 HB      -0.4940 139.6120  32.2390   H        11 THR    0.0000
  2222 HG1     -1.3740 138.0710  30.7200   H        11 THR    0.0000
  2223 HG21    -0.1150 138.6630  34.2560   H        11 THR    0.0000
  2224 HG22    -1.2780 137.3520  33.9440   H        11 THR    0.0000
  2225 HG23    -1.8490 138.9210  34.5630   H        11 THR    0.0000
  2226 N       -2.2970 140.9420  30.3500   N.am      4 ARG    0.0000
  2227 CA      -2.2660 141.1380  28.9110   C.3       4 ARG    0.0000
  2228 C       -1.3430 140.1070  28.2660   C.2       4 ARG    0.0000
  2229 O       -0.2360 139.8660  28.7600   O.2       4 ARG    0.0000
  2230 CB      -1.7890 142.5470  28.5620   C.3       4 ARG    0.0000
  2231 CG      -2.2370 143.0200  27.1860   C.3       4 ARG    0.0000
  2232 CD      -1.9250 144.4920  26.9590   C.3       4 ARG    0.0000
  2233 NE      -2.7630 145.3680  27.7720   N.pl3     4 ARG    0.0000
  2234 CZ      -3.7910 146.0660  27.3000   C.cat     4 ARG    0.0000
  2235 NH1     -4.1140 145.9910  26.0160   N.pl3     4 ARG    0.0000
  2236 NH2     -4.5000 146.8380  28.1140   N.pl3     4 ARG    0.0000
  2237 H       -1.8530 141.6120  30.9610   H         4 ARG    0.0000
  2238 HA      -3.2730 141.0020  28.5170   H         4 ARG    0.0000
  2239 HB2     -2.1810 143.2380  29.3080   H         4 ARG    0.0000
  2240 HB3     -0.7000 142.5690  28.6030   H         4 ARG    0.0000
  2241 HG2     -1.7230 142.4300  26.4270   H         4 ARG    0.0000
  2242 HG3     -3.3120 142.8650  27.0890   H         4 ARG    0.0000
  2243 HD2     -0.8800 144.6720  27.2130   H         4 ARG    0.0000
  2244 HD3     -2.0800 144.7290  25.9070   H         4 ARG    0.0000
  2245 HE      -2.5480 145.4490  28.7560   H         4 ARG    0.0000
  2246 HH11    -3.5780 145.4030  25.3940   H         4 ARG    0.0000
  2247 HH12    -4.8960 146.5210  25.6600   H         4 ARG    0.0000
  2248 HH21    -4.2580 146.8970  29.0930   H         4 ARG    0.0000
  2249 HH22    -5.2820 147.3670  27.7550   H         4 ARG    0.0000
  2250 N       -1.7660 139.4810  27.1720   N.am      2 PRO    0.0000
  2251 CA      -0.8630 138.5970  26.4350   C.3       2 PRO    0.0000
  2252 C        0.0490 139.3980  25.5220   C.2       2 PRO    0.0000
  2253 O       -0.2760 140.5060  25.0910   O.2       2 PRO    0.0000
  2254 CB      -1.8240 137.7150  25.6280   C.3       2 PRO    0.0000
  2255 CG      -2.9940 138.6040  25.4030   C.3       2 PRO    0.0000
  2256 CD      -3.1570 139.3260  26.7140   C.3       2 PRO    0.0000
  2257 HA      -0.2760 137.9900  27.1240   H         2 PRO    0.0000
  2258 HB2     -1.3750 137.4130  24.6820   H         2 PRO    0.0000
  2259 HB3     -2.1160 136.8400  26.2080   H         2 PRO    0.0000
  2260 HG2     -2.7960 139.3080  24.5950   H         2 PRO    0.0000
  2261 HG3     -3.8830 138.0130  25.1820   H         2 PRO    0.0000
  2262 HD2     -3.7390 138.7330  27.4190   H         2 PRO    0.0000
  2263 HD3     -3.6200 140.3010  26.5590   H         2 PRO    0.0000
  2264 N        1.2340 138.8480  25.2800   N.am      4 ARG    0.0000
  2265 CA       2.1560 139.4420  24.3260   C.3       4 ARG    0.0000
  2266 C        1.9250 138.9560  22.9000   C.2       4 ARG    0.0000
  2267 O        2.5200 139.5110  21.9690   O.2       4 ARG    0.0000
  2268 H        1.4980 138.0030  25.7670   H         4 ARG    0.0000
  2269 CB       3.5930 139.1470  24.7230   C.3       4 ARG    0.0000
  2270 CG       4.0530 140.1480  25.7780   C.3       4 ARG    0.0000
  2271 CD       3.3460 139.8560  27.0980   C.3       4 ARG    0.0000
  2272 NE       3.7940 140.7880  28.1570   N.pl3     4 ARG    0.0000
  2273 CZ       3.2640 140.8070  29.3760   C.cat     4 ARG    0.0000
  2274 NH2      3.7420 141.6870  30.2510   N.pl3     4 ARG    0.0000
  2275 NH1      2.2850 139.9800  29.7320   N.pl3     4 ARG    0.0000
  2276 HA       2.0140 140.5230  24.3440   H         4 ARG    0.0000
  2277 HB2      4.2340 139.2270  23.8450   H         4 ARG    0.0000
  2278 HB3      3.6570 138.1380  25.1290   H         4 ARG    0.0000
  2279 HG2      3.8080 141.1580  25.4510   H         4 ARG    0.0000
  2280 HG3      5.1300 140.0610  25.9160   H         4 ARG    0.0000
  2281 HD2      2.2710 139.9650  26.9580   H         4 ARG    0.0000
  2282 HD3      3.5660 138.8330  27.4040   H         4 ARG    0.0000
  2283 HE       4.5350 141.4400  27.9430   H         4 ARG    0.0000
  2284 HH21     4.4860 142.3150  29.9810   H         4 ARG    0.0000
  2285 HH22     3.3620 141.7270  31.1860   H         4 ARG    0.0000
  2286 HH11     1.9220 139.3110  29.0680   H         4 ARG    0.0000
  2287 HH12     1.9050 140.0200  30.6670   H         4 ARG    0.0000
  2288 N        1.0690 137.9520  22.7130   N.am     19 PHE    0.0000
  2289 CA       0.8550 137.2620  21.4460   C.3      19 PHE    0.0000
  2290 C       -0.1510 136.1470  21.6870   C.2      19 PHE    0.0000
  2291 O       -0.3940 135.7450  22.8280   O.2      19 PHE    0.0000
  2292 CB       2.1620 136.6940  20.8760   C.3      19 PHE    0.0000
  2293 CG       2.8730 135.7610  21.8130   C.ar     19 PHE    0.0000
  2294 CD1      2.5300 134.4210  21.8880   C.ar     19 PHE    0.0000
  2295 CD2      3.8700 136.2380  22.6450   C.ar     19 PHE    0.0000
  2296 CE1      3.1830 133.5750  22.7600   C.ar     19 PHE    0.0000
  2297 CE2      4.5200 135.4010  23.5200   C.ar     19 PHE    0.0000
  2298 CZ       4.1790 134.0670  23.5770   C.ar     19 PHE    0.0000
  2299 H        0.5280 137.6460  23.5090   H        19 PHE    0.0000
  2300 HA       0.4350 137.9660  20.7280   H        19 PHE    0.0000
  2301 HB2      1.9310 136.1510  19.9600   H        19 PHE    0.0000
  2302 HB3      2.8280 137.5220  20.6340   H        19 PHE    0.0000
  2303 HD1      1.7430 134.0350  21.2570   H        19 PHE    0.0000
  2304 HD2      4.1410 137.2830  22.6060   H        19 PHE    0.0000
  2305 HE1      2.9150 132.5300  22.8030   H        19 PHE    0.0000
  2306 HE2      5.2970 135.7880  24.1620   H        19 PHE    0.0000
  2307 HZ       4.6920 133.4070  24.2610   H        19 PHE    0.0000
  2308 N       -0.7370 135.6570  20.5980   N.am      6 VAL    0.0000
  2309 CA      -1.6810 134.5460  20.6460   C.3       6 VAL    0.0000
  2310 C       -1.3560 133.5940  19.5030   C.2       6 VAL    0.0000
  2311 O       -1.1200 134.0330  18.3720   O.2       6 VAL    0.0000
  2312 CB      -3.1440 135.0310  20.5740   C.3       6 VAL    0.0000
  2313 CG1     -3.3630 135.9370  19.3800   C.3       6 VAL    0.0000
  2314 CG2     -4.0900 133.8510  20.5100   C.3       6 VAL    0.0000
  2315 H       -0.5200 136.0710  19.7030   H         6 VAL    0.0000
  2316 HA      -1.5400 134.0150  21.5870   H         6 VAL    0.0000
  2317 HB      -3.3630 135.5970  21.4790   H         6 VAL    0.0000
  2318 HG21    -3.9250 133.2050  21.3730   H         6 VAL    0.0000
  2319 HG22    -3.9070 133.2880  19.5950   H         6 VAL    0.0000
  2320 HG23    -5.1190 134.2100  20.5160   H         6 VAL    0.0000
  2321 HG11    -2.6780 136.7830  19.4350   H         6 VAL    0.0000
  2322 HG12    -4.3900 136.3010  19.3840   H         6 VAL    0.0000
  2323 HG13    -3.1790 135.3790  18.4620   H         6 VAL    0.0000
  2324 N       -1.3170 132.2960  19.8010   N.am      8 LYS    0.0000
  2325 CA      -1.0340 131.2620  18.8180   C.3       8 LYS    0.0000
  2326 C       -2.3370 130.6160  18.3350   C.2       8 LYS    0.0000
  2327 O       -3.4320 131.1510  18.5480   O.2       8 LYS    0.0000
  2328 CB      -0.0670 130.2310  19.4160   C.3       8 LYS    0.0000
  2329 CG       1.0550 130.8110  20.2620   C.3       8 LYS    0.0000
  2330 CD       1.3480 129.9230  21.4660   C.3       8 LYS    0.0000
  2331 CE       2.4440 128.9110  21.1550   C.3       8 LYS    0.0000
  2332 NZ       3.7700 129.5620  20.9460   N.4       8 LYS    0.0000
  2333 H       -1.4920 132.0170  20.7560   H         8 LYS    0.0000
  2334 HA      -0.5470 131.7290  17.9620   H         8 LYS    0.0000
  2335 HB2      0.3840 129.6750  18.5940   H         8 LYS    0.0000
  2336 HB3     -0.6390 129.5360  20.0310   H         8 LYS    0.0000
  2337 HG2      1.9550 130.8930  19.6520   H         8 LYS    0.0000
  2338 HG3      0.7660 131.8030  20.6100   H         8 LYS    0.0000
  2339 HD2      1.6690 130.5490  22.2990   H         8 LYS    0.0000
  2340 HD3      0.4390 129.3910  21.7480   H         8 LYS    0.0000
  2341 HE2      2.1730 128.3680  20.2500   H         8 LYS    0.0000
  2342 HE3      2.5210 128.2060  21.9820   H         8 LYS    0.0000
  2343 HZ1      4.4640 128.8560  20.7430   H         8 LYS    0.0000
  2344 HZ2      4.0340 130.0630  21.7820   H         8 LYS    0.0000
  2345 HZ3      3.7100 130.2070  20.1710   H         8 LYS    0.0000
  2346 N       -2.2210 129.4610  17.6830   N.am     15 GLN    0.0000
  2347 CA      -3.3640 128.7600  17.1200   C.3      15 GLN    0.0000
  2348 C       -4.2710 128.2200  18.2240   C.2      15 GLN    0.0000
  2349 O       -3.8790 128.1090  19.3890   O.2      15 GLN    0.0000
  2350 CB      -2.8910 127.6090  16.2300   C.3      15 GLN    0.0000
  2351 CG      -3.9030 127.1390  15.1980   C.3      15 GLN    0.0000
  2352 CD      -3.2880 126.2240  14.1560   C.2      15 GLN    0.0000
  2353 OE1     -2.6050 126.6780  13.2380   O.2      15 GLN    0.0000
  2354 NE2     -3.5250 124.9260  14.2980   N.am     15 GLN    0.0000
  2355 H       -1.3020 129.0550  17.5750   H        15 GLN    0.0000
  2356 HA      -3.9360 129.4590  16.5100   H        15 GLN    0.0000
  2357 HB2     -1.9960 127.9360  15.7010   H        15 GLN    0.0000
  2358 HB3     -2.6280 126.7640  16.8670   H        15 GLN    0.0000
  2359 HG2     -4.7000 126.5990  15.7100   H        15 GLN    0.0000
  2360 HG3     -4.3290 128.0090  14.6980   H        15 GLN    0.0000
  2361 HE21    -4.0900 124.5970  15.0680   H        15 GLN    0.0000
  2362 HE22    -3.1400 124.2670  13.6360   H        15 GLN    0.0000
  2363 N       -5.5040 127.8780  17.8340   N.am      7 ASP    0.0000
  2364 CA      -6.4500 127.1700  18.7020   C.3       7 ASP    0.0000
  2365 C       -6.6680 127.9200  20.0140   C.2       7 ASP    0.0000
  2366 O       -6.8320 127.3170  21.0760   O.2       7 ASP    0.0000
  2367 CB      -5.9770 125.7370  18.9650   C.3       7 ASP    0.0000
  2368 CG      -7.1280 124.7630  19.1560   C.2       7 ASP    0.0000
  2369 OD1     -7.9900 125.0140  20.0270   O.co2     7 ASP    0.0000
  2370 OD2     -7.1710 123.7450  18.4290   O.co2     7 ASP    0.0000
  2371 H       -5.7970 128.1190  16.8980   H         7 ASP    0.0000
  2372 HA      -7.4070 127.1170  18.1830   H         7 ASP    0.0000
  2373 HB2     -5.3780 125.4070  18.1160   H         7 ASP    0.0000
  2374 HB3     -5.3550 125.7290  19.8600   H         7 ASP    0.0000
  2375 N       -6.6640 129.2480  19.9420   N.am     15 GLN    0.0000
  2376 CA      -6.6040 130.0830  21.1290   C.3      15 GLN    0.0000
  2377 C       -7.4740 131.3110  20.9010   C.2      15 GLN    0.0000
  2378 O       -7.5900 131.8000  19.7750   O.2      15 GLN    0.0000
  2379 CB      -5.1440 130.4560  21.4290   C.3      15 GLN    0.0000
  2380 CG      -4.8850 131.1620  22.7400   C.3      15 GLN    0.0000
  2381 CD      -3.3980 131.3590  22.9850   C.2      15 GLN    0.0000
  2382 OE1     -2.5770 131.1560  22.0870   O.2      15 GLN    0.0000
  2383 NE2     -3.0430 131.7420  24.2050   N.am     15 GLN    0.0000
  2384 H       -6.7040 129.6890  19.0340   H        15 GLN    0.0000
  2385 HA      -7.0040 129.5220  21.9740   H        15 GLN    0.0000
  2386 HB2     -4.7970 131.1080  20.6270   H        15 GLN    0.0000
  2387 HB3     -4.5480 129.5440  21.4090   H        15 GLN    0.0000
  2388 HG2     -5.3720 132.1370  22.7190   H        15 GLN    0.0000
  2389 HG3     -5.3050 130.5700  23.5530   H        15 GLN    0.0000
  2390 HE21    -3.7480 131.8920  24.9120   H        15 GLN    0.0000
  2391 HE22    -2.0680 131.8830  24.4260   H        15 GLN    0.0000
  2392 N       -8.0920 131.8020  21.9740   N.am      6 VAL    0.0000
  2393 CA      -9.0780 132.8720  21.8840   C.3       6 VAL    0.0000
  2394 C       -8.5660 134.0690  22.6680   C.2       6 VAL    0.0000
  2395 O       -7.9590 133.9090  23.7330   O.2       6 VAL    0.0000
  2396 CB     -10.4570 132.4390  22.4280   C.3       6 VAL    0.0000
  2397 CG1    -11.5310 133.4680  22.0590   C.3       6 VAL    0.0000
  2398 CG2    -10.8220 131.0310  21.9750   C.3       6 VAL    0.0000
  2399 H       -7.8700 131.4190  22.8820   H         6 VAL    0.0000
  2400 HA      -9.1880 133.1590  20.8380   H         6 VAL    0.0000
  2401 HB     -10.3850 132.4210  23.5150   H         6 VAL    0.0000
  2402 HG21   -10.9990 130.4030  22.8480   H         6 VAL    0.0000
  2403 HG22   -11.7250 131.0680  21.3650   H         6 VAL    0.0000
  2404 HG23   -10.0040 130.6150  21.3880   H         6 VAL    0.0000
  2405 HG11   -12.4950 133.1440  22.4510   H         6 VAL    0.0000
  2406 HG12   -11.2700 134.4350  22.4890   H         6 VAL    0.0000
  2407 HG13   -11.5920 133.5570  20.9740   H         6 VAL    0.0000
  2408 N       -8.8210 135.2670  22.1460   N.am     14 CYS    0.0000
  2409 CA      -8.4450 136.4980  22.8230   C.3      14 CYS    0.0000
  2410 C       -9.3720 137.6160  22.3660   C.2      14 CYS    0.0000
  2411 O      -10.2010 137.4380  21.4700   O.2      14 CYS    0.0000
  2412 CB      -6.9800 136.8580  22.5550   C.3      14 CYS    0.0000
  2413 SG      -6.5780 137.0840  20.8070   S.3      14 CYS    0.0000
  2414 H       -9.2900 135.3230  21.2530   H        14 CYS    0.0000
  2415 HA      -8.5760 136.3570  23.8960   H        14 CYS    0.0000
  2416 HB2     -6.3540 136.0570  22.9480   H        14 CYS    0.0000
  2417 HB3     -6.7440 137.7790  23.0890   H        14 CYS    0.0000
  2418 HG      -7.6590 136.8300  20.0640   H        14 CYS    0.0000
  2419 N       -9.2220 138.7800  22.9950   N.am      3 ILE    0.0000
  2420 CA      -9.9470 139.9880  22.6210   C.3       3 ILE    0.0000
  2421 C       -8.9190 141.0510  22.2670   C.2       3 ILE    0.0000
  2422 O       -7.9440 141.2470  23.0020   O.2       3 ILE    0.0000
  2423 CB     -10.8830 140.4740  23.7450   C.3       3 ILE    0.0000
  2424 CG1    -10.1990 140.3620  25.1080   C.3       3 ILE    0.0000
  2425 CG2    -12.1720 139.6740  23.7430   C.3       3 ILE    0.0000
  2426 CD1    -11.0870 140.7470  26.2760   C.3       3 ILE    0.0000
  2427 H       -8.5750 138.8280  23.7690   H         3 ILE    0.0000
  2428 HA     -10.5470 139.7750  21.7360   H         3 ILE    0.0000
  2429 HB     -11.1260 141.5210  23.5650   H         3 ILE    0.0000
  2430 HG12    -9.3280 141.0170  25.1090   H         3 ILE    0.0000
  2431 HG13    -9.8640 139.3340  25.2480   H         3 ILE    0.0000
  2432 HD11   -10.4700 141.1150  27.0960   H         3 ILE    0.0000
  2433 HD12   -11.6490 139.8740  26.6080   H         3 ILE    0.0000
  2434 HD13   -11.7800 141.5280  25.9630   H         3 ILE    0.0000
  2435 HG21   -12.4080 139.3670  22.7240   H         3 ILE    0.0000
  2436 HG22   -12.9820 140.2900  24.1330   H         3 ILE    0.0000
  2437 HG23   -12.0520 138.7910  24.3700   H         3 ILE    0.0000
  2438 N       -9.1310 141.7330  21.1440   N.am     18 ALA    0.0000
  2439 CA      -8.1000 142.5950  20.5850   C.3      18 ALA    0.0000
  2440 C       -8.7390 143.8140  19.9420   C.2      18 ALA    0.0000
  2441 O       -9.9220 143.8120  19.5930   O.2      18 ALA    0.0000
  2442 CB      -7.2440 141.8500  19.5550   C.3      18 ALA    0.0000
  2443 H      -10.0210 141.6510  20.6730   H        18 ALA    0.0000
  2444 HA      -7.4530 142.9300  21.3950   H        18 ALA    0.0000
  2445 HB1     -7.7840 141.7880  18.6100   H        18 ALA    0.0000
  2446 HB2     -6.3080 142.3880  19.4040   H        18 ALA    0.0000
  2447 HB3     -7.0310 140.8450  19.9180   H        18 ALA    0.0000
  2448 N       -7.9340 144.8610  19.7940   N.am      4 ARG    0.0000
  2449 CA      -8.3420 146.0860  19.1220   C.3       4 ARG    0.0000
  2450 C       -7.7280 146.1350  17.7290   C.2       4 ARG    0.0000
  2451 O       -6.5960 145.6890  17.5190   O.2       4 ARG    0.0000
  2452 CB      -7.9350 147.3140  19.9370   C.3       4 ARG    0.0000
  2453 CG      -8.6390 148.5950  19.5260   C.3       4 ARG    0.0000
  2454 CD      -8.2540 149.7380  20.4460   C.3       4 ARG    0.0000
  2455 NE      -9.0140 149.6740  21.6910   N.pl3     4 ARG    0.0000
  2456 CZ      -8.5440 150.0370  22.8790   C.cat     4 ARG    0.0000
  2457 NH1     -7.3020 150.4880  22.9980   N.pl3     4 ARG    0.0000
  2458 NH2     -9.3180 149.9390  23.9510   N.pl3     4 ARG    0.0000
  2459 H       -6.9960 144.8040  20.1650   H         4 ARG    0.0000
  2460 HA      -9.4270 146.0810  19.0220   H         4 ARG    0.0000
  2461 HB2     -8.1630 147.1200  20.9850   H         4 ARG    0.0000
  2462 HB3     -6.8590 147.4590  19.8360   H         4 ARG    0.0000
  2463 HG2     -9.7170 148.4430  19.5770   H         4 ARG    0.0000
  2464 HG3     -8.3590 148.8470  18.5030   H         4 ARG    0.0000
  2465 HD2     -7.1900 149.6730  20.6720   H         4 ARG    0.0000
  2466 HD3     -8.4580 150.6860  19.9480   H         4 ARG    0.0000
  2467 HE      -9.9630 149.3300  21.6460   H         4 ARG    0.0000
  2468 HH11    -6.7100 150.5600  22.1820   H         4 ARG    0.0000
  2469 HH12    -6.9480 150.7600  23.9040   H         4 ARG    0.0000
  2470 HH21   -10.2630 149.5930  23.8620   H         4 ARG    0.0000
  2471 HH22    -8.9630 150.2110  24.8570   H         4 ARG    0.0000
  2472 N       -8.4810 146.6850  16.7790   N.am      5 LEU    0.0000
  2473 CA      -8.1780 146.5320  15.3630   C.3       5 LEU    0.0000
  2474 C       -8.4180 147.8540  14.6520   C.2       5 LEU    0.0000
  2475 O       -9.4860 148.4530  14.8040   O.2       5 LEU    0.0000
  2476 CB      -9.0560 145.4390  14.7400   C.3       5 LEU    0.0000
  2477 CG      -8.5100 144.0170  14.6060   C.3       5 LEU    0.0000
  2478 CD1     -8.4900 143.3230  15.9530   C.3       5 LEU    0.0000
  2479 CD2     -9.3420 143.2230  13.6110   C.3       5 LEU    0.0000
  2480 H       -9.2900 147.2270  17.0490   H         5 LEU    0.0000
  2481 HA      -7.1300 146.2530  15.2520   H         5 LEU    0.0000
  2482 HB2     -9.3140 145.7750  13.7360   H         5 LEU    0.0000
  2483 HB3     -9.9780 145.3860  15.3180   H         5 LEU    0.0000
  2484 HG      -7.4880 144.0740  14.2320   H         5 LEU    0.0000
  2485 HD11    -7.8900 143.9050  16.6530   H         5 LEU    0.0000
  2486 HD12    -8.0570 142.3290  15.8430   H         5 LEU    0.0000
  2487 HD13    -9.5080 143.2360  16.3320   H         5 LEU    0.0000
  2488 HD21    -9.3460 143.7360  12.6490   H         5 LEU    0.0000
  2489 HD22   -10.3640 143.1360  13.9800   H         5 LEU    0.0000
  2490 HD23    -8.9130 142.2280  13.4910   H         5 LEU    0.0000
  2491 N       -7.4310 148.3080  13.8810   N.am      4 ARG    0.0000
  2492 CA      -7.5700 149.4910  13.0370   C.3       4 ARG    0.0000
  2493 C       -7.5390 149.0640  11.5780   C.2       4 ARG    0.0000
  2494 O       -6.5420 148.4980  11.1160   O.2       4 ARG    0.0000
  2495 CB      -6.4600 150.5100  13.2950   C.3       4 ARG    0.0000
  2496 CG      -6.6380 151.3720  14.5300   C.3       4 ARG    0.0000
  2497 CD      -6.4260 152.8490  14.1980   C.3       4 ARG    0.0000
  2498 NE      -5.3940 153.0710  13.1850   N.pl3     4 ARG    0.0000
  2499 CZ      -4.0870 152.9310  13.3890   C.cat     4 ARG    0.0000
  2500 NH1     -3.6270 152.5760  14.5820   N.pl3     4 ARG    0.0000
  2501 NH2     -3.2370 153.1570  12.3970   N.pl3     4 ARG    0.0000
  2502 H       -6.5500 147.8130  13.8800   H         4 ARG    0.0000
  2503 HA      -8.5320 149.9600  13.2450   H         4 ARG    0.0000
  2504 HB2     -5.5220 149.9650  13.3990   H         4 ARG    0.0000
  2505 HB3     -6.3840 151.1640  12.4260   H         4 ARG    0.0000
  2506 HG2     -7.6470 151.2350  14.9190   H         4 ARG    0.0000
  2507 HG3     -5.9160 151.0670  15.2880   H         4 ARG    0.0000
  2508 HD2     -7.3660 153.2590  13.8300   H         4 ARG    0.0000
  2509 HD3     -6.1440 153.3770  15.1090   H         4 ARG    0.0000
  2510 HE      -5.6960 153.3510  12.2630   H         4 ARG    0.0000
  2511 HH11    -4.2710 152.4070  15.3420   H         4 ARG    0.0000
  2512 HH12    -2.6330 152.4750  14.7300   H         4 ARG    0.0000
  2513 HH21    -3.5830 153.4310  11.4880   H         4 ARG    0.0000
  2514 HH22    -2.2440 153.0550  12.5500   H         4 ARG    0.0000
  2515 N       -8.6180 149.3400  10.8530   N.am     11 THR    0.0000
  2516 CA      -8.5950 149.0910   9.4240   C.3      11 THR    0.0000
  2517 C       -7.8800 150.2340   8.7050   C.2      11 THR    0.0000
  2518 O       -7.6170 151.2970   9.2730   O.2      11 THR    0.0000
  2519 CB     -10.0150 148.9210   8.8850   C.3      11 THR    0.0000
  2520 OG1    -10.5890 150.2080   8.6240   O.3      11 THR    0.0000
  2521 CG2    -10.8820 148.1830   9.8910   C.3      11 THR    0.0000
  2522 H       -9.4450 149.7190  11.2920   H        11 THR    0.0000
  2523 HA      -8.0430 148.1690   9.2420   H        11 THR    0.0000
  2524 HB      -9.9790 148.3500   7.9570   H        11 THR    0.0000
  2525 HG1    -10.6680 150.3370   7.6760   H        11 THR    0.0000
  2526 HG21   -11.7530 147.7670   9.3850   H        11 THR    0.0000
  2527 HG22   -10.3060 147.3760  10.3440   H        11 THR    0.0000
  2528 HG23   -11.2090 148.8760  10.6660   H        11 THR    0.0000
  2529 N       -7.5640 149.9990   7.4300   N.am     18 ALA    0.0000
  2530 CA      -6.9090 151.0250   6.6210   C.3      18 ALA    0.0000
  2531 C       -7.8040 152.2450   6.4390   C.2      18 ALA    0.0000
  2532 O       -7.3740 153.3850   6.6500   O.2      18 ALA    0.0000
  2533 CB      -6.5040 150.4470   5.2670   C.3      18 ALA    0.0000
  2534 H       -7.7800 149.1020   7.0190   H        18 ALA    0.0000
  2535 HA      -6.0040 151.3410   7.1400   H        18 ALA    0.0000
  2536 HB1     -6.0170 151.2200   4.6720   H        18 ALA    0.0000
  2537 HB2     -7.3920 150.0920   4.7440   H        18 ALA    0.0000
  2538 HB3     -5.8150 149.6160   5.4180   H        18 ALA    0.0000
  2539 N       -9.0570 152.0220   6.0570   N.am      1 GLY    0.0000
  2540 CA      -9.9970 153.1000   5.8250   C.3       1 GLY    0.0000
  2541 C      -11.2480 152.9320   6.6630   C.2       1 GLY    0.0000
  2542 O      -11.6010 151.8220   7.0670   O.2       1 GLY    0.0000
  2543 H       -9.3640 151.0690   5.9240   H         1 GLY    0.0000
  2544 HA2    -10.2750 153.1080   4.7710   H         1 GLY    0.0000
  2545 HA3     -9.5230 154.0490   6.0770   H         1 GLY    0.0000
  2546 N      -11.9060 154.0560   6.9380   N.am     11 THR    0.0000
  2547 CA     -13.1410 154.0490   7.7100   C.3      11 THR    0.0000
  2548 C      -14.1830 153.1390   7.0700   C.2      11 THR    0.0000
  2549 O      -14.4950 153.2680   5.8820   O.2      11 THR    0.0000
  2550 H      -11.5400 154.9360   6.6030   H        11 THR    0.0000
  2551 CB     -13.7010 155.4540   7.8230   C.3      11 THR    0.0000
  2552 CG2    -12.7020 156.3550   8.5410   C.3      11 THR    0.0000
  2553 OG1    -13.9510 155.9690   6.5120   O.3      11 THR    0.0000
  2554 HA     -12.9240 153.6790   8.7120   H        11 THR    0.0000
  2555 HB     -14.6340 155.4270   8.3850   H        11 THR    0.0000
  2556 HG21   -13.1120 157.3630   8.6180   H        11 THR    0.0000
  2557 HG22   -12.5130 155.9630   9.5400   H        11 THR    0.0000
  2558 HG23   -11.7690 156.3840   7.9790   H        11 THR    0.0000
  2559 HG1    -14.3120 156.8550   6.5810   H        11 THR    0.0000
  2560 N      -14.7100 152.2060   7.8620   N.am      3 ILE    0.0000
  2561 CA     -15.7990 151.3410   7.4380   C.3       3 ILE    0.0000
  2562 C      -16.9410 151.4270   8.4460   C.2       3 ILE    0.0000
  2563 O      -16.8060 151.9970   9.5280   O.2       3 ILE    0.0000
  2564 CB     -15.3360 149.8830   7.2470   C.3       3 ILE    0.0000
  2565 CG1    -16.0610 149.2680   6.0510   C.3       3 ILE    0.0000
  2566 CG2    -15.5100 149.0690   8.5320   C.3       3 ILE    0.0000
  2567 CD1    -15.7320 149.9450   4.7330   C.3       3 ILE    0.0000
  2568 H      -14.3380 152.0950   8.7940   H         3 ILE    0.0000
  2569 HA     -16.1670 151.7070   6.4790   H         3 ILE    0.0000
  2570 HB     -14.2720 149.9040   7.0120   H         3 ILE    0.0000
  2571 HG12   -17.1350 149.3460   6.2210   H         3 ILE    0.0000
  2572 HG13   -15.7920 148.2140   5.9810   H         3 ILE    0.0000
  2573 HD11   -16.2810 149.4580   3.9270   H         3 ILE    0.0000
  2574 HD12   -16.0170 150.9960   4.7830   H         3 ILE    0.0000
  2575 HD13   -14.6620 149.8680   4.5420   H         3 ILE    0.0000
  2576 HG21   -14.9100 148.1610   8.4720   H         3 ILE    0.0000
  2577 HG22   -15.1840 149.6640   9.3850   H         3 ILE    0.0000
  2578 HG23   -16.5600 148.8030   8.6540   H         3 ILE    0.0000
  2579 N      -18.0800 150.8460   8.0710   N.am     14 CYS    0.0000
  2580 CA     -19.2890 150.8740   8.8860   C.3      14 CYS    0.0000
  2581 C      -19.5680 149.4720   9.4200   C.2      14 CYS    0.0000
  2582 O      -20.0170 148.5930   8.6770   O.2      14 CYS    0.0000
  2583 CB     -20.4640 151.4100   8.0730   C.3      14 CYS    0.0000
  2584 SG     -20.4190 150.9410   6.3290   S.3      14 CYS    0.0000
  2585 H      -18.1070 150.3650   7.1830   H        14 CYS    0.0000
  2586 HA     -19.1210 151.5400   9.7320   H        14 CYS    0.0000
  2587 HB2    -20.4570 152.4980   8.1360   H        14 CYS    0.0000
  2588 HB3    -21.3910 151.0400   8.5110   H        14 CYS    0.0000
  2589 HG     -20.5560 149.6160   6.2210   H        14 CYS    0.0000
  2590 N      -19.2960 149.2720  10.7050   N.am      5 LEU    0.0000
  2591 CA     -19.5160 148.0120  11.3970   C.3       5 LEU    0.0000
  2592 C      -20.5350 148.1930  12.5180   C.2       5 LEU    0.0000
  2593 O      -20.7900 149.3070  12.9840   O.2       5 LEU    0.0000
  2594 CB     -18.1950 147.4370  11.9300   C.3       5 LEU    0.0000
  2595 CG     -17.1620 148.3830  12.5480   C.3       5 LEU    0.0000
  2596 CD1    -17.5930 148.8640  13.9190   C.3       5 LEU    0.0000
  2597 CD2    -15.8100 147.6940  12.6260   C.3       5 LEU    0.0000
  2598 H      -18.9130 150.0420  11.2340   H         5 LEU    0.0000
  2599 HA     -19.9270 147.3020  10.6800   H         5 LEU    0.0000
  2600 HB2    -18.4530 146.7040  12.6950   H         5 LEU    0.0000
  2601 HB3    -17.7100 146.9050  11.1110   H         5 LEU    0.0000
  2602 HG     -17.0640 149.2520  11.8970   H         5 LEU    0.0000
  2603 HD21   -15.0800 148.3730  13.0670   H         5 LEU    0.0000
  2604 HD22   -15.4870 147.4150  11.6230   H         5 LEU    0.0000
  2605 HD23   -15.8930 146.8000  13.2430   H         5 LEU    0.0000
  2606 HD11   -18.5630 149.3550  13.8440   H         5 LEU    0.0000
  2607 HD12   -16.8570 149.5700  14.3040   H         5 LEU    0.0000
  2608 HD13   -17.6680 148.0130  14.5960   H         5 LEU    0.0000
  2609 N      -21.1280 147.0770  12.9390   N.am     12 GLU    0.0000
  2610 CA     -22.0280 147.0350  14.0830   C.3      12 GLU    0.0000
  2611 C      -21.6900 145.8410  14.9600   C.2      12 GLU    0.0000
  2612 O      -21.3280 144.7760  14.4560   O.2      12 GLU    0.0000
  2613 CB     -23.4960 146.9530  13.6580   C.3      12 GLU    0.0000
  2614 CG     -24.1250 148.2910  13.3340   C.3      12 GLU    0.0000
  2615 CD     -25.4740 148.1510  12.6600   C.2      12 GLU    0.0000
  2616 OE1    -25.6970 147.1280  11.9800   O.co2    12 GLU    0.0000
  2617 OE2    -26.3150 149.0600  12.8200   O.co2    12 GLU    0.0000
  2618 H      -20.9440 146.2180  12.4400   H        12 GLU    0.0000
  2619 HA     -21.8870 147.9440  14.6670   H        12 GLU    0.0000
  2620 HB2    -24.0620 146.4970  14.4710   H        12 GLU    0.0000
  2621 HB3    -23.5690 146.3120  12.7800   H        12 GLU    0.0000
  2622 HG2    -24.2540 148.8500  14.2610   H        12 GLU    0.0000
  2623 HG3    -23.4570 148.8460  12.6760   H        12 GLU    0.0000
  2624 N      -21.7960 146.0340  16.2750   N.am     11 THR    0.0000
  2625 CA     -21.4650 144.9900  17.2360   C.3      11 THR    0.0000
  2626 C      -22.3610 143.7680  17.0340   C.2      11 THR    0.0000
  2627 O      -23.4560 143.8520  16.4730   O.2      11 THR    0.0000
  2628 CB     -21.6030 145.5180  18.6640   C.3      11 THR    0.0000
  2629 OG1    -22.9890 145.5620  19.0270   O.3      11 THR    0.0000
  2630 CG2    -21.0170 146.9170  18.7690   C.3      11 THR    0.0000
  2631 H      -22.1150 146.9300  16.6150   H        11 THR    0.0000
  2632 HA     -20.4290 144.6890  17.0770   H        11 THR    0.0000
  2633 HB     -21.0730 144.8530  19.3460   H        11 THR    0.0000
  2634 HG1    -23.0680 145.6220  19.9820   H        11 THR    0.0000
  2635 HG21   -20.7570 147.1260  19.8070   H        11 THR    0.0000
  2636 HG22   -21.7520 147.6450  18.4250   H        11 THR    0.0000
  2637 HG23   -20.1220 146.9840  18.1500   H        11 THR    0.0000
  2638 N      -21.8780 142.6160  17.5120   N.am     19 PHE    0.0000
  2639 CA     -22.6430 141.3750  17.3900   C.3      19 PHE    0.0000
  2640 C      -23.9840 141.4720  18.1070   C.2      19 PHE    0.0000
  2641 O      -25.0280 141.1410  17.5330   O.2      19 PHE    0.0000
  2642 CB     -21.8360 140.1980  17.9420   C.3      19 PHE    0.0000
  2643 CG     -22.2490 138.8560  17.3870   C.ar     19 PHE    0.0000
  2644 CD1    -23.3460 138.7340  16.5530   C.ar     19 PHE    0.0000
  2645 CD2    -21.5570 137.7100  17.7310   C.ar     19 PHE    0.0000
  2646 CE1    -23.7230 137.5000  16.0540   C.ar     19 PHE    0.0000
  2647 CE2    -21.9270 136.4750  17.2350   C.ar     19 PHE    0.0000
  2648 CZ     -23.0130 136.3700  16.3960   C.ar     19 PHE    0.0000
  2649 H      -20.9740 142.6030  17.9630   H        19 PHE    0.0000
  2650 HA     -22.8330 141.1930  16.3320   H        19 PHE    0.0000
  2651 HB2    -20.7850 140.3600  17.7010   H        19 PHE    0.0000
  2652 HB3    -21.9460 140.1770  19.0260   H        19 PHE    0.0000
  2653 HD1    -23.9150 139.6130  16.2880   H        19 PHE    0.0000
  2654 HD2    -20.7120 137.7810  18.4000   H        19 PHE    0.0000
  2655 HE1    -24.5750 137.4220  15.3950   H        19 PHE    0.0000
  2656 HE2    -21.3650 135.5930  17.5050   H        19 PHE    0.0000
  2657 HZ     -23.3070 135.4060  16.0080   H        19 PHE    0.0000
  2658 N      -23.9730 141.9000  19.3710   N.am      8 LYS    0.0000
  2659 CA     -25.2070 141.9570  20.1500   C.3       8 LYS    0.0000
  2660 C      -26.2750 142.7690  19.4260   C.2       8 LYS    0.0000
  2661 O      -27.4400 142.3630  19.3520   O.2       8 LYS    0.0000
  2662 CB     -24.9280 142.5330  21.5400   C.3       8 LYS    0.0000
  2663 CG     -23.9710 141.6920  22.3710   C.3       8 LYS    0.0000
  2664 CD     -23.8440 142.2210  23.7930   C.3       8 LYS    0.0000
  2665 CE     -22.9330 141.3320  24.6290   C.3       8 LYS    0.0000
  2666 NZ     -22.8300 141.7970  26.0400   N.4       8 LYS    0.0000
  2667 H      -23.1020 142.1880  19.7930   H         8 LYS    0.0000
  2668 HA     -25.5790 140.9400  20.2720   H         8 LYS    0.0000
  2669 HB2    -24.4970 143.5270  21.4200   H         8 LYS    0.0000
  2670 HB3    -25.8720 142.6230  22.0780   H         8 LYS    0.0000
  2671 HG2    -24.3420 140.6680  22.4070   H         8 LYS    0.0000
  2672 HG3    -22.9890 141.6990  21.8990   H         8 LYS    0.0000
  2673 HD2    -24.8320 142.2490  24.2520   H         8 LYS    0.0000
  2674 HD3    -23.4330 143.2300  23.7650   H         8 LYS    0.0000
  2675 HE2    -21.9370 141.3350  24.1850   H         8 LYS    0.0000
  2676 HE3    -23.3230 140.3140  24.6180   H         8 LYS    0.0000
  2677 HZ1    -22.2180 141.1800  26.5550   H         8 LYS    0.0000
  2678 HZ2    -23.7470 141.7920  26.4640   H         8 LYS    0.0000
  2679 HZ3    -22.4560 142.7350  26.0590   H         8 LYS    0.0000
  2680 N      -25.8920 143.9290  18.8890   N.am      7 ASP    0.0000
  2681 CA     -26.8190 144.7210  18.0880   C.3       7 ASP    0.0000
  2682 C      -27.1730 144.0210  16.7770   C.2       7 ASP    0.0000
  2683 O      -28.3550 143.8470  16.4580   O.2       7 ASP    0.0000
  2684 CB     -26.2220 146.1030  17.8170   C.3       7 ASP    0.0000
  2685 CG     -26.0550 146.9240  19.0810   C.2       7 ASP    0.0000
  2686 OD1    -26.5100 146.4670  20.1520   O.co2     7 ASP    0.0000
  2687 OD2    -25.4730 148.0260  19.0020   O.co2     7 ASP    0.0000
  2688 H      -24.9500 144.2620  19.0390   H         7 ASP    0.0000
  2689 HA     -27.7370 144.8530  18.6610   H         7 ASP    0.0000
  2690 HB2    -26.8820 146.6410  17.1360   H         7 ASP    0.0000
  2691 HB3    -25.2480 145.9810  17.3430   H         7 ASP    0.0000
  2692 N      -26.1660 143.6020  16.0060   N.am     19 PHE    0.0000
  2693 CA     -26.4200 142.9920  14.7040   C.3      19 PHE    0.0000
  2694 C      -25.4890 141.8160  14.4380   C.2      19 PHE    0.0000
  2695 O      -24.2810 141.9060  14.6980   O.2      19 PHE    0.0000
  2696 CB     -26.2620 144.0230  13.5780   C.3      19 PHE    0.0000
  2697 CG     -27.4440 144.9330  13.4210   C.ar     19 PHE    0.0000
  2698 CD1    -28.4050 144.6780  12.4590   C.ar     19 PHE    0.0000
  2699 CD2    -27.5920 146.0470  14.2320   C.ar     19 PHE    0.0000
  2700 CE1    -29.4950 145.5130  12.3110   C.ar     19 PHE    0.0000
  2701 CE2    -28.6790 146.8870  14.0880   C.ar     19 PHE    0.0000
  2702 CZ     -29.6320 146.6200  13.1260   C.ar     19 PHE    0.0000
  2703 H      -25.2150 143.7090  16.3280   H        19 PHE    0.0000
  2704 HA     -27.4470 142.6260  14.6920   H        19 PHE    0.0000
  2705 HB2    -26.1140 143.4880  12.6400   H        19 PHE    0.0000
  2706 HB3    -25.3780 144.6290  13.7790   H        19 PHE    0.0000
  2707 HD1    -28.3020 143.8160  11.8160   H        19 PHE    0.0000
  2708 HD2    -26.8490 146.2610  14.9860   H        19 PHE    0.0000
  2709 HE1    -30.2400 145.3010  11.5580   H        19 PHE    0.0000
  2710 HE2    -28.7830 147.7510  14.7270   H        19 PHE    0.0000
  2711 HZ     -30.4830 147.2750  13.0110   H        19 PHE    0.0000
  2712 N      -26.0180 140.7100  13.9050   N.am      2 PRO    0.0000
  2713 CA     -25.1810 139.5240  13.6790   C.3       2 PRO    0.0000
  2714 C      -24.3740 139.5540  12.3870   C.2       2 PRO    0.0000
  2715 O      -23.1400 139.5510  12.4350   O.2       2 PRO    0.0000
  2716 CB     -26.2050 138.3820  13.6720   C.3       2 PRO    0.0000
  2717 CG     -27.4600 139.0150  13.1750   C.3       2 PRO    0.0000
  2718 CD     -27.4500 140.4320  13.6930   C.3       2 PRO    0.0000
  2719 HA     -24.5040 139.3950  14.5230   H         2 PRO    0.0000
  2720 HB2    -25.8860 137.5820  13.0040   H         2 PRO    0.0000
  2721 HB3    -26.3500 137.9970  14.6820   H         2 PRO    0.0000
  2722 HG2    -27.4790 139.0110  12.0850   H         2 PRO    0.0000
  2723 HG3    -28.3270 138.4810  13.5650   H         2 PRO    0.0000
  2724 HD2    -28.0040 140.5090  14.6280   H         2 PRO    0.0000
  2725 HD3    -27.8640 141.1120  12.9480   H         2 PRO    0.0000
  2726 N      -25.0540 139.5880  11.2360   N.am     15 GLN    0.0000
  2727 CA     -24.3720 139.4140   9.9550   C.3      15 GLN    0.0000
  2728 C      -23.2880 140.4640   9.7470   C.2      15 GLN    0.0000
  2729 O      -22.2300 140.1700   9.1750   O.2      15 GLN    0.0000
  2730 H      -26.0530 139.7360  11.2520   H        15 GLN    0.0000
  2731 CB     -25.3680 139.4760   8.8150   C.3      15 GLN    0.0000
  2732 CG     -26.3220 138.2880   8.8890   C.3      15 GLN    0.0000
  2733 CD     -27.4770 138.5720   9.8380   C.2      15 GLN    0.0000
  2734 OE1    -27.5910 139.6730  10.3710   O.2      15 GLN    0.0000
  2735 NE2    -28.3380 137.5730  10.0480   N.am     15 GLN    0.0000
  2736 HA     -23.9030 138.4300   9.9470   H        15 GLN    0.0000
  2737 HB2    -24.8320 139.4490   7.8660   H        15 GLN    0.0000
  2738 HB3    -25.9380 140.4020   8.8830   H        15 GLN    0.0000
  2739 HG2    -26.7190 138.0880   7.8940   H        15 GLN    0.0000
  2740 HG3    -25.7760 137.4120   9.2400   H        15 GLN    0.0000
  2741 HE21   -28.2020 136.6850   9.5860   H        15 GLN    0.0000
  2742 HE22   -29.1240 137.7050  10.6680   H        15 GLN    0.0000
  2743 N      -23.5340 141.6920  10.1910   N.am     10 MET    0.0000
  2744 CA     -22.5450 142.7540  10.0990   C.3      10 MET    0.0000
  2745 C      -21.5730 142.7630  11.2710   C.2      10 MET    0.0000
  2746 O      -20.5840 143.5030  11.2300   O.2      10 MET    0.0000
  2747 CB     -23.2460 144.1090   9.9970   C.3      10 MET    0.0000
  2748 CG     -24.2820 144.1640   8.8920   C.3      10 MET    0.0000
  2749 SD     -25.2070 145.7050   8.9010   S.3      10 MET    0.0000
  2750 CE     -23.8930 146.8810   9.2110   C.3      10 MET    0.0000
  2751 H      -24.4330 141.8930  10.6040   H        10 MET    0.0000
  2752 HA     -21.9700 142.6020   9.1850   H        10 MET    0.0000
  2753 HB2    -23.7410 144.3150  10.9460   H        10 MET    0.0000
  2754 HB3    -22.4970 144.8800   9.8160   H        10 MET    0.0000
  2755 HG2    -24.9790 143.3360   9.0230   H        10 MET    0.0000
  2756 HG3    -23.7810 144.0570   7.9300   H        10 MET    0.0000
  2757 HE1    -24.2110 147.8740   8.8940   H        10 MET    0.0000
  2758 HE2    -23.0050 146.5890   8.6510   H        10 MET    0.0000
  2759 HE3    -23.6620 146.8960  10.2760   H        10 MET    0.0000
  2760 N      -21.8300 141.9690  12.3090   N.am      1 GLY    0.0000
  2761 CA     -20.9330 141.9020  13.4450   C.3       1 GLY    0.0000
  2762 C      -19.9910 140.7180  13.4060   C.2       1 GLY    0.0000
  2763 O      -19.0610 140.6210  14.2110   O.2       1 GLY    0.0000
  2764 H      -22.6660 141.4030  12.3040   H         1 GLY    0.0000
  2765 HA2    -20.3380 142.8150  13.4680   H         1 GLY    0.0000
  2766 HA3    -21.5270 141.8480  14.3580   H         1 GLY    0.0000
  2767 N      -20.2190 139.8140  12.4620   N.am      4 ARG    0.0000
  2768 CA     -19.3290 138.6880  12.2390   C.3       4 ARG    0.0000
  2769 C      -18.3050 139.0460  11.1720   C.2       4 ARG    0.0000
  2770 O      -18.5860 139.8150  10.2500   O.2       4 ARG    0.0000
  2771 CB     -20.1260 137.4560  11.8140   C.3       4 ARG    0.0000
  2772 CG     -21.1990 137.0380  12.8080   C.3       4 ARG    0.0000
  2773 CD     -21.8590 135.7280  12.3980   C.3       4 ARG    0.0000
  2774 NE     -22.8170 135.9300  11.3130   N.pl3     4 ARG    0.0000
  2775 CZ     -22.5420 135.7540  10.0240   C.cat     4 ARG    0.0000
  2776 NH1    -23.4800 135.9680   9.1110   N.pl3     4 ARG    0.0000
  2777 NH2    -21.3330 135.3620   9.6450   N.pl3     4 ARG    0.0000
  2778 H      -21.0380 139.9120  11.8790   H         4 ARG    0.0000
  2779 HA     -18.8050 138.4640  13.1680   H         4 ARG    0.0000
  2780 HB2    -19.4320 136.6250  11.6900   H         4 ARG    0.0000
  2781 HB3    -20.6000 137.6610  10.8540   H         4 ARG    0.0000
  2782 HG2    -20.7430 136.9130  13.7900   H         4 ARG    0.0000
  2783 HG3    -21.9580 137.8180  12.8640   H         4 ARG    0.0000
  2784 HD2    -21.0890 135.0320  12.0660   H         4 ARG    0.0000
  2785 HD3    -22.3770 135.3040  13.2580   H         4 ARG    0.0000
  2786 HE     -23.7520 136.2230  11.5590   H         4 ARG    0.0000
  2787 HH11   -24.4020 136.2660   9.3950   H         4 ARG    0.0000
  2788 HH12   -23.2720 135.8330   8.1320   H         4 ARG    0.0000
  2789 HH21   -20.6160 135.1970  10.3370   H         4 ARG    0.0000
  2790 HH22   -21.1300 135.2290   8.6650   H         4 ARG    0.0000
  2791 N      -17.1110 138.4740  11.3010   N.am     19 PHE    0.0000
  2792 CA     -16.0450 138.7560  10.3490   C.3      19 PHE    0.0000
  2793 C      -15.0190 137.6360  10.3860   C.2      19 PHE    0.0000
  2794 O      -14.9800 136.8270  11.3170   O.2      19 PHE    0.0000
  2795 CB     -15.3910 140.1210  10.6160   C.3      19 PHE    0.0000
  2796 CG     -14.5170 140.1690  11.8460   C.ar     19 PHE    0.0000
  2797 CD1    -13.2260 139.6640  11.8370   C.ar     19 PHE    0.0000
  2798 CD2    -14.9830 140.7630  13.0060   C.ar     19 PHE    0.0000
  2799 CE1    -12.4360 139.7230  12.9670   C.ar     19 PHE    0.0000
  2800 CE2    -14.1940 140.8260  14.1370   C.ar     19 PHE    0.0000
  2801 CZ     -12.9180 140.3070  14.1160   C.ar     19 PHE    0.0000
  2802 H      -16.9420 137.8380  12.0670   H        19 PHE    0.0000
  2803 HA     -16.4820 138.7810   9.3510   H        19 PHE    0.0000
  2804 HB2    -14.7770 140.3790   9.7530   H        19 PHE    0.0000
  2805 HB3    -16.1770 140.8690  10.7190   H        19 PHE    0.0000
  2806 HD1    -12.8340 139.2190  10.9350   H        19 PHE    0.0000
  2807 HD2    -15.9780 141.1830  13.0270   H        19 PHE    0.0000
  2808 HE1    -11.4380 139.3100  12.9500   H        19 PHE    0.0000
  2809 HE2    -14.5770 141.2820  15.0380   H        19 PHE    0.0000
  2810 HZ     -12.2980 140.3580  14.9990   H        19 PHE    0.0000
  2811 N      -14.1880 137.6040   9.3470   N.am     11 THR    0.0000
  2812 CA     -13.1330 136.6100   9.2050   C.3      11 THR    0.0000
  2813 C      -11.8460 137.2980   8.7720   C.2      11 THR    0.0000
  2814 O      -11.7900 137.8930   7.6910   O.2      11 THR    0.0000
  2815 CB     -13.5360 135.5200   8.2030   C.3      11 THR    0.0000
  2816 OG1    -12.3840 134.7600   7.8200   O.3      11 THR    0.0000
  2817 CG2    -14.2060 136.1180   6.9660   C.3      11 THR    0.0000
  2818 H      -14.2940 138.3010   8.6240   H        11 THR    0.0000
  2819 HA     -12.9660 136.1430  10.1750   H        11 THR    0.0000
  2820 HB     -14.2450 134.8500   8.6890   H        11 THR    0.0000
  2821 HG1    -11.6660 134.9350   8.4330   H        11 THR    0.0000
  2822 HG21   -14.1250 135.4180   6.1340   H        11 THR    0.0000
  2823 HG22   -15.2580 136.3090   7.1790   H        11 THR    0.0000
  2824 HG23   -13.7130 137.0540   6.7030   H        11 THR    0.0000
  2825 N      -10.8240 137.2340   9.6210   N.am      5 LEU    0.0000
  2826 CA      -9.4860 137.6240   9.2010   C.3       5 LEU    0.0000
  2827 C       -8.9530 136.6340   8.1700   C.2       5 LEU    0.0000
  2828 O       -9.1910 135.4260   8.2620   O.2       5 LEU    0.0000
  2829 CB      -8.5490 137.6920  10.4050   C.3       5 LEU    0.0000
  2830 CG      -8.2180 139.0810  10.9530   C.3       5 LEU    0.0000
  2831 CD1     -9.4810 139.8790  11.2160   C.3       5 LEU    0.0000
  2832 CD2     -7.3910 138.9690  12.2210   C.3       5 LEU    0.0000
  2833 H      -10.9780 136.9120  10.5660   H         5 LEU    0.0000
  2834 HA      -9.5380 138.6120   8.7430   H         5 LEU    0.0000
  2835 HB2     -7.6090 137.2200  10.1170   H         5 LEU    0.0000
  2836 HB3     -8.9900 137.1050  11.2110   H         5 LEU    0.0000
  2837 HG      -7.6280 139.6120  10.2060   H         5 LEU    0.0000
  2838 HD21    -6.4880 138.3940  12.0170   H         5 LEU    0.0000
  2839 HD22    -7.9750 138.4660  12.9920   H         5 LEU    0.0000
  2840 HD23    -7.1170 139.9660  12.5650   H         5 LEU    0.0000
  2841 HD11   -10.0640 139.9510  10.2980   H         5 LEU    0.0000
  2842 HD12   -10.0730 139.3800  11.9830   H         5 LEU    0.0000
  2843 HD13    -9.2140 140.8800  11.5560   H         5 LEU    0.0000
  2844 N       -8.2150 137.1490   7.1900   N.am      4 ARG    0.0000
  2845 CA      -7.7830 136.3340   6.0640   C.3       4 ARG    0.0000
  2846 C       -6.4140 136.7960   5.5930   C.2       4 ARG    0.0000
  2847 O       -6.1440 137.9980   5.5250   O.2       4 ARG    0.0000
  2848 CB      -8.7830 136.4030   4.9040   C.3       4 ARG    0.0000
  2849 CG      -9.9350 135.4200   5.0090   C.3       4 ARG    0.0000
  2850 CD     -10.9830 135.7040   3.9480   C.3       4 ARG    0.0000
  2851 NE     -10.9690 134.7050   2.8840   N.pl3     4 ARG    0.0000
  2852 CZ     -11.8050 133.6760   2.8150   C.cat     4 ARG    0.0000
  2853 NH1    -12.7290 133.5070   3.7510   N.pl3     4 ARG    0.0000
  2854 NH2    -11.7200 132.8150   1.8090   N.pl3     4 ARG    0.0000
  2855 H       -7.9500 138.1230   7.2280   H         4 ARG    0.0000
  2856 HA      -7.7050 135.2980   6.3940   H         4 ARG    0.0000
  2857 HB2     -9.1970 137.4110   4.8710   H         4 ARG    0.0000
  2858 HB3     -8.2490 136.2150   3.9730   H         4 ARG    0.0000
  2859 HG2    -10.3910 135.5080   5.9950   H         4 ARG    0.0000
  2860 HG3     -9.5560 134.4070   4.8780   H         4 ARG    0.0000
  2861 HD2    -11.9670 135.7050   4.4170   H         4 ARG    0.0000
  2862 HD3    -10.7940 136.6870   3.5160   H         4 ARG    0.0000
  2863 HE     -10.2790 134.8030   2.1530   H         4 ARG    0.0000
  2864 HH11   -12.7970 134.1610   4.5180   H         4 ARG    0.0000
  2865 HH12   -13.3650 132.7240   3.6970   H         4 ARG    0.0000
  2866 HH21   -11.0180 132.9410   1.0940   H         4 ARG    0.0000
  2867 HH22   -12.3580 132.0330   1.7580   H         4 ARG    0.0000
  2868 N       -5.5580 135.8300   5.2730   N.am      7 ASP    0.0000
  2869 CA      -4.2170 136.1120   4.7800   C.3       7 ASP    0.0000
  2870 C       -3.7700 134.9410   3.9200   C.2       7 ASP    0.0000
  2871 O       -3.9440 133.7830   4.3110   O.2       7 ASP    0.0000
  2872 CB      -3.2350 136.3410   5.9360   C.3       7 ASP    0.0000
  2873 CG      -1.8340 136.6670   5.4550   C.2       7 ASP    0.0000
  2874 OD1     -1.6200 137.7980   4.9670   O.co2     7 ASP    0.0000
  2875 OD2     -0.9470 135.7940   5.5660   O.co2     7 ASP    0.0000
  2876 H       -5.8480 134.8680   5.3750   H         7 ASP    0.0000
  2877 HA      -4.2500 137.0100   4.1630   H         7 ASP    0.0000
  2878 HB2     -3.5980 137.1710   6.5430   H         7 ASP    0.0000
  2879 HB3     -3.1980 135.4420   6.5520   H         7 ASP    0.0000
  2880 N       -3.1940 135.2510   2.7560   N.am     12 GLU    0.0000
  2881 CA      -2.8470 134.2520   1.7450   C.3      12 GLU    0.0000
  2882 C       -4.0580 133.4140   1.3400   C.2      12 GLU    0.0000
  2883 O       -3.9340 132.2190   1.0540   O.2      12 GLU    0.0000
  2884 CB      -1.7050 133.3490   2.2200   C.3      12 GLU    0.0000
  2885 CG      -0.4020 134.0840   2.4920   C.3      12 GLU    0.0000
  2886 CD       0.5250 133.3080   3.4080   C.2      12 GLU    0.0000
  2887 OE1      1.7580 133.4430   3.2590   O.co2    12 GLU    0.0000
  2888 OE2      0.0210 132.5680   4.2800   O.co2    12 GLU    0.0000
  2889 H       -2.9880 136.2210   2.5640   H        12 GLU    0.0000
  2890 HA      -2.5010 134.7840   0.8590   H        12 GLU    0.0000
  2891 HB2     -2.0190 132.8570   3.1410   H        12 GLU    0.0000
  2892 HB3     -1.5240 132.5870   1.4620   H        12 GLU    0.0000
  2893 HG2      0.1070 134.2550   1.5430   H        12 GLU    0.0000
  2894 HG3     -0.6280 135.0470   2.9500   H        12 GLU    0.0000
  2895 N       -5.2380 134.0320   1.3170   N.am      1 GLY    0.0000
  2896 CA      -6.4660 133.3520   0.9450   C.3       1 GLY    0.0000
  2897 C       -6.9990 132.4000   1.9990   C.2       1 GLY    0.0000
  2898 O       -8.1950 132.0960   2.0210   O.2       1 GLY    0.0000
  2899 H       -5.2800 135.0100   1.5680   H         1 GLY    0.0000
  2900 HA2     -7.2280 134.1070   0.7510   H         1 GLY    0.0000
  2901 HA3     -6.2890 132.7910   0.0270   H         1 GLY    0.0000
  2902 N       -6.1200 131.9270   2.8790   N.am      8 LYS    0.0000
  2903 CA      -6.5390 131.0960   3.9970   C.3       8 LYS    0.0000
  2904 C       -7.3680 131.8950   4.9970   C.2       8 LYS    0.0000
  2905 O       -7.1860 133.1040   5.1700   O.2       8 LYS    0.0000
  2906 CB      -5.3220 130.5030   4.7060   C.3       8 LYS    0.0000
  2907 CG      -4.7850 129.2210   4.0930   C.3       8 LYS    0.0000
  2908 CD      -3.3990 128.9070   4.6360   C.3       8 LYS    0.0000
  2909 CE      -3.2390 127.4290   4.9580   C.3       8 LYS    0.0000
  2910 NZ      -3.7020 126.5520   3.8450   N.4       8 LYS    0.0000
  2911 H       -5.1410 132.1500   2.7680   H         8 LYS    0.0000
  2912 HA      -7.1500 130.2790   3.6130   H         8 LYS    0.0000
  2913 HB2     -5.6010 130.2930   5.7390   H         8 LYS    0.0000
  2914 HB3     -4.5250 131.2470   4.7070   H         8 LYS    0.0000
  2915 HG2     -5.4590 128.3990   4.3350   H         8 LYS    0.0000
  2916 HG3     -4.7300 129.3350   3.0100   H         8 LYS    0.0000
  2917 HD2     -2.6560 129.1880   3.8890   H         8 LYS    0.0000
  2918 HD3     -3.2310 129.4890   5.5420   H         8 LYS    0.0000
  2919 HE2     -3.8220 127.2000   5.8500   H         8 LYS    0.0000
  2920 HE3     -2.1880 127.2220   5.1590   H         8 LYS    0.0000
  2921 HZ1     -3.2310 125.6600   3.9000   H         8 LYS    0.0000
  2922 HZ2     -4.6990 126.4110   3.9210   H         8 LYS    0.0000
  2923 HZ3     -3.4900 126.9910   2.9600   H         8 LYS    0.0000
  2924 N       -8.2880 131.2020   5.6610   N.am     11 THR    0.0000
  2925 CA      -9.0110 131.7630   6.7930   C.3      11 THR    0.0000
  2926 C       -8.1740 131.5370   8.0460   C.2      11 THR    0.0000
  2927 O       -7.8960 130.3890   8.4120   O.2      11 THR    0.0000
  2928 CB     -10.3900 131.1220   6.9380   C.3      11 THR    0.0000
  2929 OG1    -11.0950 131.2090   5.6920   O.3      11 THR    0.0000
  2930 CG2    -11.1890 131.8190   8.0260   C.3      11 THR    0.0000
  2931 H       -8.4920 130.2560   5.3710   H        11 THR    0.0000
  2932 HA      -9.1340 132.8350   6.6380   H        11 THR    0.0000
  2933 HB     -10.2680 130.0720   7.2040   H        11 THR    0.0000
  2934 HG1    -11.2160 132.1320   5.4570   H        11 THR    0.0000
  2935 HG21   -12.1690 131.3490   8.1160   H        11 THR    0.0000
  2936 HG22   -10.6590 131.7370   8.9750   H        11 THR    0.0000
  2937 HG23   -11.3130 132.8710   7.7690   H        11 THR    0.0000
  2938 N       -7.7740 132.6270   8.6980   N.am      3 ILE    0.0000
  2939 CA      -6.8360 132.5540   9.8030   C.3       3 ILE    0.0000
  2940 C       -7.5040 132.8030  11.1520   C.2       3 ILE    0.0000
  2941 O       -7.0710 132.2310  12.1600   O.2       3 ILE    0.0000
  2942 CB      -5.6660 133.5370   9.5690   C.3       3 ILE    0.0000
  2943 CG1     -4.6080 132.8800   8.6820   C.3       3 ILE    0.0000
  2944 CG2     -5.0500 134.0170  10.8790   C.3       3 ILE    0.0000
  2945 CD1     -3.4130 133.7480   8.4060   C.3       3 ILE    0.0000
  2946 H       -8.1330 133.5280   8.4160   H         3 ILE    0.0000
  2947 HA      -6.4220 131.5460   9.8200   H         3 ILE    0.0000
  2948 HB      -6.0560 134.4070   9.0410   H         3 ILE    0.0000
  2949 HG12    -5.0720 132.6230   7.7300   H         3 ILE    0.0000
  2950 HG13    -4.2690 131.9630   9.1640   H         3 ILE    0.0000
  2951 HD11    -2.6330 133.5370   9.1380   H         3 ILE    0.0000
  2952 HD12    -3.7020 134.7970   8.4750   H         3 ILE    0.0000
  2953 HD13    -3.0370 133.5400   7.4040   H         3 ILE    0.0000
  2954 HG21    -4.0850 134.4820  10.6780   H         3 ILE    0.0000
  2955 HG22    -4.9110 133.1670  11.5480   H         3 ILE    0.0000
  2956 HG23    -5.7140 134.7440  11.3480   H         3 ILE    0.0000
  2957 N       -8.5870 133.5720  11.1910   N.am     18 ALA    0.0000
  2958 CA      -9.3080 133.7870  12.4350   C.3      18 ALA    0.0000
  2959 C      -10.7410 134.1730  12.1110   C.2      18 ALA    0.0000
  2960 O      -11.0490 134.6250  11.0060   O.2      18 ALA    0.0000
  2961 CB      -8.6430 134.8670  13.2910   C.3      18 ALA    0.0000
  2962 H       -8.9140 134.0140  10.3440   H        18 ALA    0.0000
  2963 HA      -9.3180 132.8540  12.9980   H        18 ALA    0.0000
  2964 HB1     -9.0040 135.8480  12.9830   H        18 ALA    0.0000
  2965 HB2     -7.5620 134.8200  13.1600   H        18 ALA    0.0000
  2966 HB3     -8.8890 134.7020  14.3400   H        18 ALA    0.0000
  2967 N      -11.6130 133.9810  13.0920   N.am      3 ILE    0.0000
  2968 CA     -12.9930 134.4310  13.0090   C.3       3 ILE    0.0000
  2969 C      -13.2820 135.2390  14.2620   C.2       3 ILE    0.0000
  2970 O      -12.7180 134.9850  15.3310   O.2       3 ILE    0.0000
  2971 CB     -13.9850 133.2590  12.8590   C.3       3 ILE    0.0000
  2972 CG1    -13.4950 132.0460  13.6470   C.3       3 ILE    0.0000
  2973 CG2    -14.1470 132.8980  11.3930   C.3       3 ILE    0.0000
  2974 CD1    -14.4830 130.9030  13.6840   C.3       3 ILE    0.0000
  2975 H      -11.3070 133.5040  13.9280   H         3 ILE    0.0000
  2976 HA     -13.0940 135.0850  12.1430   H         3 ILE    0.0000
  2977 HB     -14.9530 133.5660  13.2540   H         3 ILE    0.0000
  2978 HG12   -12.5730 131.6880  13.1890   H         3 ILE    0.0000
  2979 HG13   -13.2800 132.3560  14.6700   H         3 ILE    0.0000
  2980 HG21   -14.4970 133.7700  10.8400   H         3 ILE    0.0000
  2981 HG22   -13.1870 132.5740  10.9910   H         3 ILE    0.0000
  2982 HG23   -14.8730 132.0910  11.2960   H         3 ILE    0.0000
  2983 HD11   -14.0640 130.0790  14.2610   H         3 ILE    0.0000
  2984 HD12   -15.4090 131.2390  14.1500   H         3 ILE    0.0000
  2985 HD13   -14.6880 130.5670  12.6680   H         3 ILE    0.0000
  2986 N      -14.1600 136.2240  14.1260   N.am      1 GLY    0.0000
  2987 CA     -14.2890 137.2200  15.1660   C.3       1 GLY    0.0000
  2988 C      -15.6340 137.9050  15.2320   C.2       1 GLY    0.0000
  2989 O      -16.2140 138.2620  14.2020   O.2       1 GLY    0.0000
  2990 H      -14.7370 136.2780  13.2990   H         1 GLY    0.0000
  2991 HA2    -14.1110 136.7330  16.1250   H         1 GLY    0.0000
  2992 HA3    -13.5210 137.9790  15.0160   H         1 GLY    0.0000
  2993 N      -16.1530 138.0670  16.4430   N.am      8 LYS    0.0000
  2994 CA     -17.2870 138.9400  16.6930   C.3       8 LYS    0.0000
  2995 C      -16.7920 140.2530  17.2830   C.2       8 LYS    0.0000
  2996 O      -15.8840 140.2670  18.1190   O.2       8 LYS    0.0000
  2997 CB     -18.3030 138.2730  17.6190   C.3       8 LYS    0.0000
  2998 CG     -17.7740 137.8000  18.9620   C.3       8 LYS    0.0000
  2999 CD     -18.8770 137.0690  19.7170   C.3       8 LYS    0.0000
  3000 CE     -18.6110 136.9830  21.2040   C.3       8 LYS    0.0000
  3001 NZ     -19.7720 136.4020  21.9360   N.4       8 LYS    0.0000
  3002 H      -15.7450 137.5650  17.2190   H         8 LYS    0.0000
  3003 HA     -17.7750 139.1520  15.7420   H         8 LYS    0.0000
  3004 HB2    -19.1010 138.9910  17.8100   H         8 LYS    0.0000
  3005 HB3    -18.7300 137.4160  17.0980   H         8 LYS    0.0000
  3006 HG2    -17.4440 138.6600  19.5450   H         8 LYS    0.0000
  3007 HG3    -16.9330 137.1250  18.8040   H         8 LYS    0.0000
  3008 HD2    -19.8160 137.6000  19.5610   H         8 LYS    0.0000
  3009 HD3    -18.9710 136.0600  19.3160   H         8 LYS    0.0000
  3010 HE2    -17.7370 136.3540  21.3710   H         8 LYS    0.0000
  3011 HE3    -18.4100 137.9830  21.5890   H         8 LYS    0.0000
  3012 HZ1    -19.5610 136.3590  22.9230   H         8 LYS    0.0000
  3013 HZ2    -19.9560 135.4710  21.5910   H         8 LYS    0.0000
  3014 HZ3    -20.5860 136.9820  21.7900   H         8 LYS    0.0000
  3015 N      -17.3850 141.3530  16.8390   N.am      6 VAL    0.0000
  3016 CA     -16.9690 142.6900  17.2490   C.3       6 VAL    0.0000
  3017 C      -17.6990 143.0720  18.5290   C.2       6 VAL    0.0000
  3018 O      -18.8920 142.7900  18.6920   O.2       6 VAL    0.0000
  3019 CB     -17.2270 143.7060  16.1200   C.3       6 VAL    0.0000
  3020 CG1    -18.6200 143.5330  15.5710   C.3       6 VAL    0.0000
  3021 CG2    -17.0320 145.1290  16.6180   C.3       6 VAL    0.0000
  3022 H      -18.1550 141.2620  16.1920   H         6 VAL    0.0000
  3023 HA     -15.8990 142.6690  17.4560   H         6 VAL    0.0000
  3024 HB     -16.5130 143.5200  15.3170   H         6 VAL    0.0000
  3025 HG21   -16.0220 145.2410  17.0120   H         6 VAL    0.0000
  3026 HG22   -17.7550 145.3400  17.4060   H         6 VAL    0.0000
  3027 HG23   -17.1800 145.8260  15.7930   H         6 VAL    0.0000
  3028 HG11   -18.5780 142.9540  14.6490   H         6 VAL    0.0000
  3029 HG12   -19.0540 144.5120  15.3660   H         6 VAL    0.0000
  3030 HG13   -19.2360 143.0090  16.3020   H         6 VAL    0.0000
  3031 N      -16.9760 143.7140  19.4490   N.am      5 LEU    0.0000
  3032 CA     -17.4830 144.0010  20.7860   C.3       5 LEU    0.0000
  3033 C      -17.8110 145.4810  20.9470   C.2       5 LEU    0.0000
  3034 O      -18.9860 145.8460  21.0300   O.2       5 LEU    0.0000
  3035 CB     -16.4610 143.5530  21.8330   C.3       5 LEU    0.0000
  3036 CG     -16.0990 142.0690  21.8300   C.3       5 LEU    0.0000
  3037 CD1    -14.8570 141.8340  22.6680   C.3       5 LEU    0.0000
  3038 CD2    -17.2590 141.2300  22.3370   C.3       5 LEU    0.0000
  3039 H      -16.0410 144.0130  19.2100   H         5 LEU    0.0000
  3040 HA     -18.3990 143.4290  20.9350   H         5 LEU    0.0000
  3041 HB2    -15.5450 144.1190  21.6670   H         5 LEU    0.0000
  3042 HB3    -16.8470 143.8090  22.8200   H         5 LEU    0.0000
  3043 HG     -15.8820 141.7710  20.8040   H         5 LEU    0.0000
  3044 HD11   -14.6080 140.7730  22.6590   H         5 LEU    0.0000
  3045 HD12   -14.0260 142.4060  22.2540   H         5 LEU    0.0000
  3046 HD13   -15.0440 142.1550  23.6930   H         5 LEU    0.0000
  3047 HD21   -18.1390 141.4150  21.7210   H         5 LEU    0.0000
  3048 HD22   -16.9940 140.1740  22.2840   H         5 LEU    0.0000
  3049 HD23   -17.4770 141.4980  23.3710   H         5 LEU    0.0000
  3050 N      -16.8050 146.3460  21.0010   N.am      8 LYS    0.0000
  3051 CA     -16.9780 147.7740  21.2220   C.3       8 LYS    0.0000
  3052 C      -16.6260 148.5490  19.9550   C.2       8 LYS    0.0000
  3053 O      -16.3120 147.9760  18.9070   O.2       8 LYS    0.0000
  3054 CB     -16.1260 148.2430  22.4030   C.3       8 LYS    0.0000
  3055 CG     -16.8160 149.2430  23.3140   C.3       8 LYS    0.0000
  3056 CD     -15.8050 149.9820  24.1750   C.3       8 LYS    0.0000
  3057 CE     -16.4260 150.4560  25.4770   C.3       8 LYS    0.0000
  3058 NZ     -16.7390 149.3160  26.3820   N.4       8 LYS    0.0000
  3059 H      -15.8660 145.9930  20.8820   H         8 LYS    0.0000
  3060 HA     -18.0260 147.9600  21.4590   H         8 LYS    0.0000
  3061 HB2    -15.2220 148.7080  22.0080   H         8 LYS    0.0000
  3062 HB3    -15.8400 147.3730  22.9940   H         8 LYS    0.0000
  3063 HG2    -17.3600 149.9640  22.7040   H         8 LYS    0.0000
  3064 HG3    -17.5190 148.7160  23.9590   H         8 LYS    0.0000
  3065 HD2    -15.4350 150.8460  23.6240   H         8 LYS    0.0000
  3066 HD3    -14.9710 149.3160  24.3980   H         8 LYS    0.0000
  3067 HE2    -15.7270 151.1250  25.9790   H         8 LYS    0.0000
  3068 HE3    -17.3450 151.0000  25.2570   H         8 LYS    0.0000
  3069 HZ1    -17.1490 149.6660  27.2360   H         8 LYS    0.0000
  3070 HZ2    -17.3910 148.6940  25.9260   H         8 LYS    0.0000
  3071 HZ3    -15.8890 148.8140  26.5980   H         8 LYS    0.0000
  3072 N      -16.6880 149.8760  20.0620   N.am      5 LEU    0.0000
  3073 CA     -16.3100 150.7710  18.9710   C.3       5 LEU    0.0000
  3074 C      -15.4710 151.8980  19.5590   C.2       5 LEU    0.0000
  3075 O      -15.9820 152.7330  20.3130   O.2       5 LEU    0.0000
  3076 CB     -17.5360 151.3240  18.2390   C.3       5 LEU    0.0000
  3077 CG     -18.6780 150.3700  17.8690   C.3       5 LEU    0.0000
  3078 CD1    -19.7770 150.3880  18.9220   C.3       5 LEU    0.0000
  3079 CD2    -19.2420 150.7180  16.5070   C.3       5 LEU    0.0000
  3080 H      -17.0090 150.2780  20.9310   H         5 LEU    0.0000
  3081 HA     -15.6990 150.2160  18.2590   H         5 LEU    0.0000
  3082 HB2    -17.9630 152.1010  18.8740   H         5 LEU    0.0000
  3083 HB3    -17.1890 151.7990  17.3210   H         5 LEU    0.0000
  3084 HG     -18.2730 149.3590  17.8200   H         5 LEU    0.0000
  3085 HD21   -18.4420 150.7000  15.7670   H         5 LEU    0.0000
  3086 HD22   -19.6840 151.7140  16.5410   H         5 LEU    0.0000
  3087 HD23   -20.0060 149.9910  16.2340   H         5 LEU    0.0000
  3088 HD11   -19.3540 150.1360  19.8940   H         5 LEU    0.0000
  3089 HD12   -20.2210 151.3820  18.9660   H         5 LEU    0.0000
  3090 HD13   -20.5440 149.6590  18.6590   H         5 LEU    0.0000
  3091 N      -14.1900 151.9150  19.2100   N.am      6 VAL    0.0000
  3092 CA     -13.2240 152.9270  19.6300   C.3       6 VAL    0.0000
  3093 C      -13.3580 154.0630  18.6190   C.2       6 VAL    0.0000
  3094 O      -13.7000 153.7870  17.4600   O.2       6 VAL    0.0000
  3095 CB     -11.8120 152.3090  19.6900   C.3       6 VAL    0.0000
  3096 CG1    -10.7940 153.2280  20.3540   C.3       6 VAL    0.0000
  3097 CG2    -11.8670 150.9630  20.4170   C.3       6 VAL    0.0000
  3098 H      -13.8590 151.1730  18.6100   H         6 VAL    0.0000
  3099 HA     -13.4970 153.2940  20.6190   H         6 VAL    0.0000
  3100 HB     -11.4820 152.1250  18.6680   H         6 VAL    0.0000
  3101 HG11    -9.8690 152.6790  20.5300   H         6 VAL    0.0000
  3102 HG12   -11.1920 153.5840  21.3040   H         6 VAL    0.0000
  3103 HG13   -10.5930 154.0790  19.7030   H         6 VAL    0.0000
  3104 HG21   -10.8860 150.7330  20.8320   H         6 VAL    0.0000
  3105 HG22   -12.5990 151.0150  21.2230   H         6 VAL    0.0000
  3106 HG23   -12.1560 150.1820  19.7140   H         6 VAL    0.0000
  3107 N      -13.1650 155.3480  18.9980   N.am      2 PRO    0.0000
  3108 CA     -13.2510 156.4880  18.0680   C.3       2 PRO    0.0000
  3109 C      -12.6750 156.2510  16.6700   C.2       2 PRO    0.0000
  3110 O      -13.1590 156.8450  15.7020   O.co2     2 PRO    0.0000
  3111 CB     -12.4440 157.5850  18.7910   C.3       2 PRO    0.0000
  3112 CG     -11.9660 156.9530  20.1120   C.3       2 PRO    0.0000
  3113 CD     -12.9240 155.8340  20.3630   C.3       2 PRO    0.0000
  3114 OXT    -11.7360 155.4740  16.5120   O.co2     2 PRO    0.0000
  3115 HA     -14.2910 156.8040  17.9810   H         2 PRO    0.0000
  3116 HB2    -13.0750 158.4510  18.9910   H         2 PRO    0.0000
  3117 HB3    -11.5870 157.8790  18.1850   H         2 PRO    0.0000
  3118 HG2    -10.9490 156.5730  20.0110   H         2 PRO    0.0000
  3119 HG3    -12.0180 157.6830  20.9200   H         2 PRO    0.0000
  3120 HD2    -13.8430 156.1920  20.8270   H         2 PRO    0.0000
  3121 HD3    -12.4610 155.0580  20.9730   H         2 PRO    0.0000
  3122 N      -23.0210 122.0950  26.7160   N.4       6 VAL    0.0000
  3123 CA     -21.8650 122.3360  25.8590   C.3       6 VAL    0.0000
  3124 C      -21.5420 123.8170  25.7920   C.2       6 VAL    0.0000
  3125 O      -22.4370 124.6650  25.6960   O.2       6 VAL    0.0000
  3126 CB     -22.0680 121.7930  24.4340   C.3       6 VAL    0.0000
  3127 CG1    -21.8720 120.3230  24.4280   C.3       6 VAL    0.0000
  3128 CG2    -23.4480 122.1600  23.9120   C.3       6 VAL    0.0000
  3129 HA     -21.0080 121.8230  26.2960   H         6 VAL    0.0000
  3130 HB     -21.3200 122.2440  23.7820   H         6 VAL    0.0000
  3131 HG21   -23.5660 123.2430  23.9270   H         6 VAL    0.0000
  3132 HG22   -23.5580 121.7970  22.8900   H         6 VAL    0.0000
  3133 HG23   -24.2090 121.7030  24.5440   H         6 VAL    0.0000
  3134 HG11   -22.0160 119.9410  23.4170   H         6 VAL    0.0000
  3135 HG12   -22.5940 119.8580  25.0990   H         6 VAL    0.0000
  3136 HG13   -20.8620 120.0900  24.7640   H         6 VAL    0.0000
  3137 H1     -22.7300 122.0970  27.6830   H         6 VAL    0.0000
  3138 H2     -23.4270 121.1990  26.4890   H         6 VAL    0.0000
  3139 H3     -23.7070 122.8220  26.5690   H         6 VAL    0.0000
  3140 N      -20.2570 124.1180  25.8540   N.am     16 ASN    0.0000
  3141 CA     -19.7540 125.4780  25.7970   C.3      16 ASN    0.0000
  3142 C      -19.4910 125.8420  24.3390   C.2      16 ASN    0.0000
  3143 O      -19.6170 124.9940  23.4520   O.2      16 ASN    0.0000
  3144 CB     -18.5350 125.5910  26.7270   C.3      16 ASN    0.0000
  3145 CG     -17.1930 125.3570  26.0330   C.2      16 ASN    0.0000
  3146 OD1    -17.1030 124.7590  24.9610   O.2      16 ASN    0.0000
  3147 ND2    -16.1300 125.8300  26.6730   N.am     16 ASN    0.0000
  3148 H      -19.5910 123.3640  25.9460   H        16 ASN    0.0000
  3149 HA     -20.5310 126.1420  26.1760   H        16 ASN    0.0000
  3150 HB2    -18.5260 126.5920  27.1590   H        16 ASN    0.0000
  3151 HB3    -18.6420 124.8650  27.5320   H        16 ASN    0.0000
  3152 HD21   -16.2430 126.3110  27.5540   H        16 ASN    0.0000
  3153 HD22   -15.2080 125.7090  26.2790   H        16 ASN    0.0000
  3154 N      -19.1440 127.0980  24.0330   N.am      2 PRO    0.0000
  3155 CA     -18.9610 127.4740  22.6160   C.3       2 PRO    0.0000
  3156 C      -17.8890 126.6860  21.8690   C.2       2 PRO    0.0000
  3157 O      -17.8910 126.7020  20.6330   O.2       2 PRO    0.0000
  3158 CB     -18.6100 128.9670  22.6830   C.3       2 PRO    0.0000
  3159 CG     -19.1200 129.4280  23.9900   C.3       2 PRO    0.0000
  3160 CD     -19.0580 128.2700  24.9240   C.3       2 PRO    0.0000
  3161 HA     -19.9110 127.3580  22.0950   H         2 PRO    0.0000
  3162 HB2    -17.5310 129.1090  22.6230   H         2 PRO    0.0000
  3163 HB3    -19.1050 129.5060  21.8750   H         2 PRO    0.0000
  3164 HG2    -18.5010 130.2430  24.3650   H         2 PRO    0.0000
  3165 HG3    -20.1520 129.7650  23.8860   H         2 PRO    0.0000
  3166 HD2    -19.8940 128.2890  25.6230   H         2 PRO    0.0000
  3167 HD3    -18.1110 128.2680  25.4640   H         2 PRO    0.0000
  3168 N      -16.9770 126.0070  22.5650   N.am     17 HIS    0.0000
  3169 CA     -15.8850 125.2670  21.9370   C.3      17 HIS    0.0000
  3170 C      -16.0340 123.7530  22.0630   C.2      17 HIS    0.0000
  3171 O      -15.0570 123.0190  21.8830   O.2      17 HIS    0.0000
  3172 CB     -14.5420 125.7400  22.4870   C.3      17 HIS    0.0000
  3173 CG     -14.2880 127.1950  22.2480   C.ar     17 HIS    0.0000
  3174 ND1    -13.5960 127.6550  21.1490   N.ar     17 HIS    0.0000
  3175 CD2    -14.6540 128.2940  22.9500   C.ar     17 HIS    0.0000
  3176 CE1    -13.5360 128.9740  21.1900   C.ar     17 HIS    0.0000
  3177 NE2    -14.1690 129.3860  22.2730   N.ar     17 HIS    0.0000
  3178 H      -17.0440 126.0040  23.5730   H        17 HIS    0.0000
  3179 HA     -15.9020 125.5060  20.8740   H        17 HIS    0.0000
  3180 HB2    -14.5240 125.5570  23.5610   H        17 HIS    0.0000
  3181 HB3    -13.7460 125.1620  22.0180   H        17 HIS    0.0000
  3182 HD2    -15.2210 128.3090  23.8690   H        17 HIS    0.0000
  3183 HE1    -13.0520 129.6080  20.4620   H        17 HIS    0.0000
  3184 HE2    -14.2790 130.3490  22.5580   H        17 HIS    0.0000
  3185 N      -17.2370 123.2730  22.3640   N.am      1 GLY    0.0000
  3186 CA     -17.5230 121.8530  22.4040   C.3       1 GLY    0.0000
  3187 C      -17.1020 121.1230  23.6580   C.2       1 GLY    0.0000
  3188 O      -17.1210 119.8860  23.6680   O.2       1 GLY    0.0000
  3189 H      -17.9810 123.9240  22.5730   H         1 GLY    0.0000
  3190 HA2    -17.0130 121.3870  21.5610   H         1 GLY    0.0000
  3191 HA3    -18.5960 121.7160  22.2720   H         1 GLY    0.0000
  3192 N      -16.7220 121.8390  24.7110   N.am      9 TYR    0.0000
  3193 CA     -16.4210 121.2130  25.9910   C.3       9 TYR    0.0000
  3194 C      -17.7340 120.9440  26.7110   C.2       9 TYR    0.0000
  3195 O      -18.5540 121.8510  26.8850   O.2       9 TYR    0.0000
  3196 CB     -15.4860 122.0670  26.8460   C.3       9 TYR    0.0000
  3197 CG     -14.0780 122.1850  26.3050   C.ar      9 TYR    0.0000
  3198 CD1    -13.3720 121.0510  25.9210   C.ar      9 TYR    0.0000
  3199 CD2    -13.4440 123.4140  26.2040   C.ar      9 TYR    0.0000
  3200 CE1    -12.0700 121.1350  25.4650   C.ar      9 TYR    0.0000
  3201 CE2    -12.1470 123.5100  25.7250   C.ar      9 TYR    0.0000
  3202 CZ     -11.4640 122.3660  25.3640   C.ar      9 TYR    0.0000
  3203 OH     -10.1860 122.4580  24.8640   O.3       9 TYR    0.0000
  3204 H      -16.6400 122.8420  24.6210   H         9 TYR    0.0000
  3205 HA     -15.9330 120.2570  25.7990   H         9 TYR    0.0000
  3206 HB2    -15.9090 123.0690  26.9170   H         9 TYR    0.0000
  3207 HB3    -15.4400 121.6370  27.8470   H         9 TYR    0.0000
  3208 HD1    -13.8510 120.0850  25.9800   H         9 TYR    0.0000
  3209 HD2    -13.9690 124.3100  26.5030   H         9 TYR    0.0000
  3210 HE1    -11.5320 120.2400  25.1900   H         9 TYR    0.0000
  3211 HE2    -11.6730 124.4760  25.6350   H         9 TYR    0.0000
  3212 HH      -9.5890 121.9470  25.4160   H         9 TYR    0.0000
  3213 N      -17.9350 119.6970  27.1230   N.am      6 VAL    0.0000
  3214 CA     -19.1640 119.2760  27.7840   C.3       6 VAL    0.0000
  3215 C      -18.9600 119.3440  29.2880   C.2       6 VAL    0.0000
  3216 O      -17.9730 118.8190  29.8190   O.2       6 VAL    0.0000
  3217 CB     -19.5620 117.8520  27.3580   C.3       6 VAL    0.0000
  3218 CG1    -20.7500 117.3610  28.1740   C.3       6 VAL    0.0000
  3219 CG2    -19.8550 117.7960  25.8720   C.3       6 VAL    0.0000
  3220 H      -17.2070 119.0130  26.9720   H         6 VAL    0.0000
  3221 HA     -19.9640 119.9620  27.5070   H         6 VAL    0.0000
  3222 HB     -18.7190 117.1920  27.5600   H         6 VAL    0.0000
  3223 HG11   -21.0160 116.3520  27.8580   H         6 VAL    0.0000
  3224 HG12   -20.4850 117.3520  29.2310   H         6 VAL    0.0000
  3225 HG13   -21.5990 118.0270  28.0170   H         6 VAL    0.0000
  3226 HG21   -20.1340 116.7800  25.5940   H         6 VAL    0.0000
  3227 HG22   -20.6750 118.4750  25.6380   H         6 VAL    0.0000
  3228 HG23   -18.9670 118.0940  25.3150   H         6 VAL    0.0000
  3229 N      -19.8960 119.9990  29.9730   N.am     17 HIS    0.0000
  3230 CA     -19.8580 120.1530  31.4180   C.3      17 HIS    0.0000
  3231 C      -21.1750 119.6720  32.0010   C.2      17 HIS    0.0000
  3232 O      -22.2460 120.1320  31.5920   O.2      17 HIS    0.0000
  3233 CB     -19.6400 121.6140  31.8430   C.3      17 HIS    0.0000
  3234 CG     -18.3600 122.2190  31.3570   C.ar     17 HIS    0.0000
  3235 ND1    -17.2100 122.2310  32.1160   N.ar     17 HIS    0.0000
  3236 CD2    -18.0600 122.8710  30.2090   C.ar     17 HIS    0.0000
  3237 CE1    -16.2500 122.8440  31.4480   C.ar     17 HIS    0.0000
  3238 NE2    -16.7400 123.2430  30.2880   N.ar     17 HIS    0.0000
  3239 HA     -19.0490 119.5430  31.8190   H        17 HIS    0.0000
  3240 HB2    -19.6440 121.6550  32.9320   H        17 HIS    0.0000
  3241 HB3    -20.4710 122.2120  31.4700   H        17 HIS    0.0000
  3242 HD2    -18.7320 123.0630  29.3860   H        17 HIS    0.0000
  3243 HE1    -15.2370 122.9940  31.7910   H        17 HIS    0.0000
  3244 HE2    -16.2270 123.7410  29.5750   H        17 HIS    0.0000
  3245 H      -20.6680 120.4070  29.4650   H        17 HIS    0.0000
  3246 N      -23.9690 132.9090  25.3430   N.2      17 HIS    0.0000
  3247 CA     -24.1070 131.4500  25.3110   C.3      17 HIS    0.0000
  3248 C      -24.5730 130.8660  26.6460   C.2      17 HIS    0.0000
  3249 O      -24.2220 129.7380  26.9980   O.2      17 HIS    0.0000
  3250 CB     -22.7740 130.8300  24.8660   C.3      17 HIS    0.0000
  3251 CG     -22.8930 129.5000  24.1910   C.ar     17 HIS    0.0000
  3252 ND1    -22.8630 128.3070  24.8780   N.ar     17 HIS    0.0000
  3253 CD2    -23.0060 129.1770  22.8810   C.ar     17 HIS    0.0000
  3254 CE1    -22.9630 127.3060  24.0220   C.ar     17 HIS    0.0000
  3255 NE2    -23.0560 127.8060  22.8040   N.ar     17 HIS    0.0000
  3256 H      -24.5570 133.4650  24.7380   H        17 HIS    0.0000
  3257 HA     -24.8570 131.2030  24.5590   H        17 HIS    0.0000
  3258 HB2    -22.2940 131.5200  24.1720   H        17 HIS    0.0000
  3259 HB3    -22.1340 130.7180  25.7410   H        17 HIS    0.0000
  3260 HD2    -23.0490 129.8680  22.0520   H        17 HIS    0.0000
  3261 HE1    -22.9680 126.2560  24.2760   H        17 HIS    0.0000
  3262 HE2    -23.1490 127.2680  21.9540   H        17 HIS    0.0000
  3263 N      -25.3610 131.6320  27.3970   N.am     13 SER    0.0000
  3264 CA     -25.8880 131.1780  28.6800   C.3      13 SER    0.0000
  3265 C      -26.8130 129.9710  28.5270   C.2      13 SER    0.0000
  3266 O      -27.7610 129.9920  27.7360   O.2      13 SER    0.0000
  3267 CB     -26.6350 132.3210  29.3680   C.3      13 SER    0.0000
  3268 OG     -27.0970 131.9340  30.6500   O.3      13 SER    0.0000
  3269 H      -25.6020 132.5560  27.0690   H        13 SER    0.0000
  3270 HA     -25.0480 130.8880  29.3120   H        13 SER    0.0000
  3271 HB2    -25.9620 133.1720  29.4750   H        13 SER    0.0000
  3272 HB3    -27.4870 132.6130  28.7540   H        13 SER    0.0000
  3273 HG     -27.7260 132.5830  30.9730   H        13 SER    0.0000
  3274 N      -26.5270 128.9120  29.2960   N.am     20 TRP    0.0000
  3275 CA     -27.2850 127.6640  29.2630   C.3      20 TRP    0.0000
  3276 C      -28.6220 127.7710  29.9810   C.2      20 TRP    0.0000
  3277 O      -29.4660 126.8800  29.8340   O.2      20 TRP    0.0000
  3278 CB     -26.4970 126.5310  29.9240   C.3      20 TRP    0.0000
  3279 CG     -25.1950 126.1820  29.2900   C.ar     20 TRP    0.0000
  3280 CD1    -24.9050 126.1550  27.9580   C.ar     20 TRP    0.0000
  3281 CD2    -23.9990 125.7880  29.9710   C.ar     20 TRP    0.0000
  3282 NE1    -23.5980 125.7750  27.7670   N.ar     20 TRP    0.0000
  3283 CE2    -23.0210 125.5420  28.9880   C.ar     20 TRP    0.0000
  3284 CE3    -23.6610 125.6190  31.3180   C.ar     20 TRP    0.0000
  3285 CZ2    -21.7250 125.1400  29.3100   C.ar     20 TRP    0.0000
  3286 CZ3    -22.3760 125.2210  31.6350   C.ar     20 TRP    0.0000
  3287 CH2    -21.4240 124.9850  30.6360   C.ar     20 TRP    0.0000
  3288 H      -25.7460 128.9800  29.9320   H        20 TRP    0.0000
  3289 HA     -27.4700 127.3970  28.2220   H        20 TRP    0.0000
  3290 HB2    -26.2980 126.8220  30.9550   H        20 TRP    0.0000
  3291 HB3    -27.1230 125.6390  29.9340   H        20 TRP    0.0000
  3292 HD1    -25.6010 126.3970  27.1680   H        20 TRP    0.0000
  3293 HE3    -24.3900 125.7960  32.0950   H        20 TRP    0.0000
  3294 HZ2    -20.9870 124.9580  28.5420   H        20 TRP    0.0000
  3295 HZ3    -22.1020 125.0900  32.6710   H        20 TRP    0.0000
  3296 HH2    -20.4290 124.6730  30.9180   H        20 TRP    0.0000
  3297 HE1    -23.1380 125.6830  26.8730   H        20 TRP    0.0000
  3298 N      -28.8260 128.8370  30.7480   N.am     19 PHE    0.0000
  3299 CA     -30.0420 129.0790  31.5210   C.3      19 PHE    0.0000
  3300 C      -30.5130 130.4520  31.0690   C.2      19 PHE    0.0000
  3301 O      -30.1760 131.4710  31.6890   O.2      19 PHE    0.0000
  3302 CB     -29.7820 129.0250  33.0240   C.3      19 PHE    0.0000
  3303 CG     -29.1380 127.7470  33.4850   C.ar     19 PHE    0.0000
  3304 CD1    -29.8960 126.6060  33.6930   C.ar     19 PHE    0.0000
  3305 CD2    -27.7730 127.6890  33.7140   C.ar     19 PHE    0.0000
  3306 CE1    -29.3050 125.4320  34.1200   C.ar     19 PHE    0.0000
  3307 CE2    -27.1760 126.5180  34.1400   C.ar     19 PHE    0.0000
  3308 CZ     -27.9420 125.3880  34.3430   C.ar     19 PHE    0.0000
  3309 H      -28.0900 129.5270  30.8000   H        19 PHE    0.0000
  3310 HA     -30.7930 128.3340  31.2570   H        19 PHE    0.0000
  3311 HB2    -30.7350 129.1350  33.5410   H        19 PHE    0.0000
  3312 HB3    -29.1370 129.8600  33.2980   H        19 PHE    0.0000
  3313 HD1    -30.9620 126.6340  33.5190   H        19 PHE    0.0000
  3314 HD2    -27.1680 128.5700  33.5580   H        19 PHE    0.0000
  3315 HE1    -29.9080 124.5500  34.2790   H        19 PHE    0.0000
  3316 HE2    -26.1110 126.4870  34.3140   H        19 PHE    0.0000
  3317 HZ     -27.4770 124.4720  34.6750   H        19 PHE    0.0000
  3318 N      -31.2750 130.5180  29.9760   N.am      2 PRO    0.0000
  3319 CA     -31.6490 131.8210  29.4070   C.3       2 PRO    0.0000
  3320 C      -32.3410 132.7160  30.4230   C.2       2 PRO    0.0000
  3321 O      -33.3190 132.3290  31.0680   O.2       2 PRO    0.0000
  3322 CB     -32.5860 131.4420  28.2540   C.3       2 PRO    0.0000
  3323 CG     -33.1400 130.1070  28.6510   C.3       2 PRO    0.0000
  3324 CD     -32.0060 129.4080  29.3420   C.3       2 PRO    0.0000
  3325 HA     -30.7640 132.3220  29.0150   H         2 PRO    0.0000
  3326 HB2    -33.3850 132.1760  28.1490   H         2 PRO    0.0000
  3327 HB3    -32.0250 131.3570  27.3230   H         2 PRO    0.0000
  3328 HG2    -33.4570 129.5470  27.7710   H         2 PRO    0.0000
  3329 HG3    -33.9770 130.2360  29.3370   H         2 PRO    0.0000
  3330 HD2    -32.3750 128.7040  30.0880   H         2 PRO    0.0000
  3331 HD3    -31.3720 128.8980  28.6160   H         2 PRO    0.0000
  3332 N      -31.8050 133.9260  30.5570   N.am      1 GLY    0.0000
  3333 CA     -32.2540 134.9070  31.5180   C.3       1 GLY    0.0000
  3334 C      -31.2890 135.1140  32.6620   C.2       1 GLY    0.0000
  3335 O      -31.4880 136.0350  33.4650   O.2       1 GLY    0.0000
  3336 H      -31.0370 134.1740  29.9500   H         1 GLY    0.0000
  3337 HA2    -33.2090 134.5770  31.9270   H         1 GLY    0.0000
  3338 HA3    -32.4010 135.8580  31.0060   H         1 GLY    0.0000
  3339 N      -30.2480 134.2930  32.7560   N.am      9 TYR    0.0000
  3340 CA     -29.2280 134.3960  33.7880   C.3       9 TYR    0.0000
  3341 C      -27.8750 134.6770  33.1560   C.2       9 TYR    0.0000
  3342 O      -27.5560 134.1490  32.0860   O.2       9 TYR    0.0000
  3343 CB     -29.1440 133.1160  34.6300   C.3       9 TYR    0.0000
  3344 CG     -30.3270 132.8930  35.5440   C.ar      9 TYR    0.0000
  3345 CD1    -31.5340 132.4160  35.0500   C.ar      9 TYR    0.0000
  3346 CD2    -30.2390 133.1720  36.9020   C.ar      9 TYR    0.0000
  3347 CE1    -32.6140 132.2020  35.8860   C.ar      9 TYR    0.0000
  3348 CE2    -31.3170 132.9740  37.7430   C.ar      9 TYR    0.0000
  3349 CZ     -32.5010 132.4860  37.2300   C.ar      9 TYR    0.0000
  3350 OH     -33.5820 132.2980  38.0610   O.3       9 TYR    0.0000
  3351 H      -30.1600 133.5550  32.0720   H         9 TYR    0.0000
  3352 HA     -29.4830 135.2270  34.4450   H         9 TYR    0.0000
  3353 HB2    -28.2440 133.1700  35.2430   H         9 TYR    0.0000
  3354 HB3    -29.0570 132.2620  33.9580   H         9 TYR    0.0000
  3355 HD1    -31.6310 132.2090  33.9950   H         9 TYR    0.0000
  3356 HD2    -29.3120 133.5500  37.3070   H         9 TYR    0.0000
  3357 HE1    -33.5400 131.8150  35.4880   H         9 TYR    0.0000
  3358 HE2    -31.2330 133.2000  38.7960   H         9 TYR    0.0000
  3359 HH     -34.3120 132.8470  37.7660   H         9 TYR    0.0000
  3360 N      -27.0840 135.5100  33.8200   N.am     18 ALA    0.0000
  3361 CA     -25.7220 135.7900  33.4000   C.3      18 ALA    0.0000
  3362 C      -24.7730 134.9360  34.2300   C.2      18 ALA    0.0000
  3363 O      -25.0220 134.6720  35.4070   O.2      18 ALA    0.0000
  3364 CB     -25.3840 137.2730  33.5600   C.3      18 ALA    0.0000
  3365 H      -27.4420 135.9660  34.6470   H        18 ALA    0.0000
  3366 HA     -25.6140 135.5160  32.3500   H        18 ALA    0.0000
  3367 HB1    -24.3580 137.4490  33.2370   H        18 ALA    0.0000
  3368 HB2    -25.4890 137.5590  34.6070   H        18 ALA    0.0000
  3369 HB3    -26.0640 137.8680  32.9510   H        18 ALA    0.0000
  3370 N      -23.6700 134.5240  33.6150   N.am     20 TRP    0.0000
  3371 CA     -22.6680 133.7130  34.2890   C.3      20 TRP    0.0000
  3372 C      -21.4010 134.5050  34.5760   C.2      20 TRP    0.0000
  3373 O      -21.0230 135.4110  33.8280   O.2      20 TRP    0.0000
  3374 CB     -22.3170 132.4760  33.4550   C.3      20 TRP    0.0000
  3375 CG     -21.9180 132.7890  32.0440   C.ar     20 TRP    0.0000
  3376 CD1    -22.7300 132.8100  30.9480   C.ar     20 TRP    0.0000
  3377 CD2    -20.6060 133.1280  31.5760   C.ar     20 TRP    0.0000
  3378 NE1    -22.0070 133.1400  29.8280   N.ar     20 TRP    0.0000
  3379 CE2    -20.7000 133.3400  30.1870   C.ar     20 TRP    0.0000
  3380 CE3    -19.3610 133.2710  32.1970   C.ar     20 TRP    0.0000
  3381 CZ2    -19.5990 133.6880  29.4090   C.ar     20 TRP    0.0000
  3382 CZ3    -18.2690 133.6160  31.4220   C.ar     20 TRP    0.0000
  3383 CH2    -18.3950 133.8200  30.0440   C.ar     20 TRP    0.0000
  3384 HA     -23.0830 133.3770  35.2390   H        20 TRP    0.0000
  3385 HB2    -21.4890 131.9590  33.9390   H        20 TRP    0.0000
  3386 HB3    -23.1800 131.8110  33.4350   H        20 TRP    0.0000
  3387 HD1    -23.7890 132.5980  30.9590   H        20 TRP    0.0000
  3388 HE3    -19.2550 133.1150  33.2600   H        20 TRP    0.0000
  3389 HZ2    -19.6920 133.8480  28.3450   H        20 TRP    0.0000
  3390 HZ3    -17.3020 133.7300  31.8890   H        20 TRP    0.0000
  3391 HH2    -17.5210 134.0880  29.4680   H        20 TRP    0.0000
  3392 HE1    -22.3780 133.2220  28.8920   H        20 TRP    0.0000
  3393 H      -23.5230 134.7820  32.6500   H        20 TRP    0.0000
  3394 N      -19.6140 128.3940  37.7200   N.2      20 TRP    0.0000
  3395 CA     -20.0280 129.7620  37.4440   C.3      20 TRP    0.0000
  3396 C      -21.1330 130.1660  38.4070   C.2      20 TRP    0.0000
  3397 O      -21.9150 129.3260  38.8610   O.2      20 TRP    0.0000
  3398 CB     -20.5360 129.9370  36.0050   C.3      20 TRP    0.0000
  3399 CG     -19.6070 129.4460  34.9400   C.ar     20 TRP    0.0000
  3400 CD1    -18.7340 130.1940  34.2040   C.ar     20 TRP    0.0000
  3401 CD2    -19.4820 128.1010  34.4640   C.ar     20 TRP    0.0000
  3402 NE1    -18.0620 129.3950  33.3110   N.ar     20 TRP    0.0000
  3403 CE2    -18.5030 128.1060  33.4500   C.ar     20 TRP    0.0000
  3404 CE3    -20.0960 126.8920  34.8020   C.ar     20 TRP    0.0000
  3405 CZ2    -18.1260 126.9490  32.7730   C.ar     20 TRP    0.0000
  3406 CZ3    -19.7200 125.7450  34.1280   C.ar     20 TRP    0.0000
  3407 CH2    -18.7440 125.7810  33.1250   C.ar     20 TRP    0.0000
  3408 HA     -19.1740 130.4220  37.5960   H        20 TRP    0.0000
  3409 HB2    -20.7120 130.9990  35.8360   H        20 TRP    0.0000
  3410 HB3    -21.4850 129.4090  35.9070   H        20 TRP    0.0000
  3411 HD1    -18.5920 131.2600  34.3090   H        20 TRP    0.0000
  3412 HE3    -20.8500 126.8540  35.5750   H        20 TRP    0.0000
  3413 HZ2    -17.3730 126.9730  31.9990   H        20 TRP    0.0000
  3414 HZ3    -20.1870 124.8050  34.3800   H        20 TRP    0.0000
  3415 HH2    -18.4730 124.8670  32.6180   H        20 TRP    0.0000
  3416 HE1    -17.3570 129.7070  32.6580   H        20 TRP    0.0000
  3417 H      -20.1290 127.6210  37.3230   H        20 TRP    0.0000
  3418 N      -21.2000 131.4600  38.7090   N.am      8 LYS    0.0000
  3419 CA     -22.3160 132.0140  39.4620   C.3       8 LYS    0.0000
  3420 C      -23.2910 132.5700  38.4350   C.2       8 LYS    0.0000
  3421 O      -22.8900 133.3060  37.5270   O.2       8 LYS    0.0000
  3422 CB     -21.8720 133.0970  40.4450   C.3       8 LYS    0.0000
  3423 CG     -22.9880 133.5660  41.3720   C.3       8 LYS    0.0000
  3424 CD     -22.6890 134.9210  41.9890   C.3       8 LYS    0.0000
  3425 CE     -23.5750 135.1840  43.1950   C.3       8 LYS    0.0000
  3426 NZ     -23.3310 136.5300  43.7850   N.4       8 LYS    0.0000
  3427 H      -20.4570 132.0740  38.4080   H         8 LYS    0.0000
  3428 HA     -22.8030 131.2110  40.0150   H         8 LYS    0.0000
  3429 HB2    -21.0610 132.6990  41.0550   H         8 LYS    0.0000
  3430 HB3    -21.5010 133.9530  39.8810   H         8 LYS    0.0000
  3431 HG2    -23.9130 133.6370  40.8000   H         8 LYS    0.0000
  3432 HG3    -23.1190 132.8340  42.1690   H         8 LYS    0.0000
  3433 HD2    -21.6450 134.9460  42.3030   H         8 LYS    0.0000
  3434 HD3    -22.8580 135.6990  41.2440   H         8 LYS    0.0000
  3435 HE2    -24.6180 135.1200  42.8860   H         8 LYS    0.0000
  3436 HE3    -23.3810 134.4240  43.9510   H         8 LYS    0.0000
  3437 HZ1    -23.9380 136.6640  44.5810   H         8 LYS    0.0000
  3438 HZ2    -22.3680 136.5980  44.0810   H         8 LYS    0.0000
  3439 HZ3    -23.5220 137.2410  43.0930   H         8 LYS    0.0000
  3440 N      -24.5640 132.2310  38.5860   N.am     19 PHE    0.0000
  3441 CA     -25.6250 132.7240  37.7190   C.3      19 PHE    0.0000
  3442 C      -26.4720 133.7740  38.4250   C.2      19 PHE    0.0000
  3443 O      -27.0290 133.5090  39.4960   O.2      19 PHE    0.0000
  3444 CB     -26.4930 131.5610  37.2510   C.3      19 PHE    0.0000
  3445 CG     -25.8030 130.6520  36.2780   C.ar     19 PHE    0.0000
  3446 CD1    -25.0270 129.5980  36.7330   C.ar     19 PHE    0.0000
  3447 CD2    -25.9230 130.8490  34.9140   C.ar     19 PHE    0.0000
  3448 CE1    -24.3850 128.7570  35.8470   C.ar     19 PHE    0.0000
  3449 CE2    -25.2830 130.0090  34.0210   C.ar     19 PHE    0.0000
  3450 CZ     -24.5140 128.9620  34.4890   C.ar     19 PHE    0.0000
  3451 HA     -25.1670 133.1840  36.8440   H        19 PHE    0.0000
  3452 HB2    -26.7840 130.9750  38.1230   H        19 PHE    0.0000
  3453 HB3    -27.3920 131.9610  36.7810   H        19 PHE    0.0000
  3454 HD1    -24.9230 129.4320  37.7950   H        19 PHE    0.0000
  3455 HD2    -26.5230 131.6670  34.5430   H        19 PHE    0.0000
  3456 HE1    -23.7830 127.9400  36.2160   H        19 PHE    0.0000
  3457 HE2    -25.3850 130.1720  32.9580   H        19 PHE    0.0000
  3458 HZ     -24.0140 128.3050  33.7930   H        19 PHE    0.0000
  3459 H      -24.8090 131.6020  39.3370   H        19 PHE    0.0000
@<TRIPOS>BOND
     1     1     2    1
     2     2     5    1
     3     2     6    1
     4     2     3    1
     5     3     4    2
     6     7     1    1
     7     8    14    1
     8     8     9    1
     9     9    12    1
    10     9    15    1
    11     9    10    1
    12    10    11    2
    13    12    17    1
    14    12    16    1
    15    12    13    1
    16    13    18    1
    17    13    14    1
    18    13    19    1
    19    14    20    1
    20    14    21    1
    21     3     8   am
    22    22    23    1
    23    22    30    1
    24    23    31    1
    25    23    24    1
    26    23    26    1
    27    24    25    2
    28    26    28    1
    29    26    32    1
    30    26    27    1
    31    27    34    1
    32    27    33    1
    33    27    29    1
    34    28    37    1
    35    28    35    1
    36    28    36    1
    37    29    38    1
    38    29    40    1
    39    29    39    1
    40    10    22   am
    41    41    52    1
    42    41    42    1
    43    42    43    1
    44    42    53    1
    45    42    45    1
    46    43    44    2
    47    45    46    1
    48    45    54    1
    49    45    55    1
    50    46    56    1
    51    46    57    1
    52    46    47    1
    53    47    58    1
    54    47    59    1
    55    47    48    1
    56    48    60    1
    57    48    49    2
    58    49    50    2
    59    49    51    2
    60    50    61    1
    61    50    62    1
    62    51    64    1
    63    51    63    1
    64    24    41   am
    65    65    73    1
    66    65    66    1
    67    66    67    1
    68    66    74    1
    69    66    69    1
    70    67    68    2
    71    69    75    1
    72    69    76    1
    73    69    70    1
    74    70    72    1
    75    70    71    1
    76    70    77    1
    77    71    79    1
    78    71    80    1
    79    71    78    1
    80    72    81    1
    81    72    82    1
    82    72    83    1
    83    43    65   am
    84    84    90    1
    85    84    85    1
    86    85    88    1
    87    85    91    1
    88    85    86    1
    89    86    87    2
    90    88    93    1
    91    88    92    1
    92    88    89    1
    93    89    94    1
    94    89    90    1
    95    89    95    1
    96    90    96    1
    97    90    97    1
    98    67    84   am
    99    98    99    1
   100    98   106    1
   101    99   107    1
   102    99   100    1
   103    99   102    1
   104   100   101    2
   105   102   104    1
   106   102   108    1
   107   102   103    1
   108   103   110    1
   109   103   109    1
   110   103   105    1
   111   104   113    1
   112   104   111    1
   113   104   112    1
   114   105   114    1
   115   105   116    1
   116   105   115    1
   117    86    98   am
   118   117   124    1
   119   117   118    1
   120   118   125    1
   121   118   121    1
   122   118   119    1
   123   119   120    2
   124   121   126    1
   125   121   122    1
   126   121   123    1
   127   122   127    1
   128   122   128    1
   129   122   129    1
   130   123   130    1
   131   123   131    1
   132   123   132    1
   133   100   117   am
   134   133   141    1
   135   133   134    1
   136   134   142    1
   137   134   137    1
   138   134   135    1
   139   135   136    2
   140   137   143    1
   141   137   144    1
   142   137   138    1
   143   138   139    2
   144   138   140    2
   145   119   133   am
   146   145   154    1
   147   145   146    1
   148   146   155    1
   149   146   149    1
   150   146   147    1
   151   147   148    2
   152   149   156    1
   153   149   157    1
   154   149   150    1
   155   150   158    1
   156   150   159    1
   157   150   151    1
   158   151   160    1
   159   151   161    1
   160   151   152    1
   161   152   162    1
   162   152   163    1
   163   152   153    1
   164   153   164    1
   165   153   165    1
   166   153   166    1
   167   135   145   am
   168   167   179    1
   169   167   168    1
   170   168   169    1
   171   168   171    1
   172   168   180    1
   173   169   170    2
   174   171   172    1
   175   171   181    1
   176   171   182    1
   177   172   173   ar
   178   172   174   ar
   179   173   183    1
   180   173   175   ar
   181   174   176   ar
   182   174   184    1
   183   175   185    1
   184   175   177   ar
   185   176   177   ar
   186   176   186    1
   187   177   178    1
   188   178   187    1
   189   147   167   am
   190   188   192    1
   191   188   189    1
   192   189   198    1
   193   189   193    1
   194   189   190    1
   195   190   191    2
   196   193   199    1
   197   193   200    1
   198   193   194    1
   199   194   201    1
   200   194   202    1
   201   194   195    1
   202   195   203    1
   203   195   204    1
   204   195   196    1
   205   196   205    1
   206   196   206    1
   207   196   197    1
   208   197   207    1
   209   197   208    1
   210   197   209    1
   211   169   188   am
   212   210   218    1
   213   210   211    1
   214   211   219    1
   215   211   214    1
   216   211   212    1
   217   212   213    2
   218   214   220    1
   219   214   221    1
   220   214   215    1
   221   215   216    2
   222   215   217    2
   223   190   210   am
   224   222   230    1
   225   222   223    1
   226   223   231    1
   227   223   226    1
   228   223   224    1
   229   224   225    2
   230   226   232    1
   231   226   233    1
   232   226   227    1
   233   227   234    1
   234   227   235    1
   235   227   228    1
   236   228   229    1
   237   229   236    1
   238   229   237    1
   239   229   238    1
   240   212   222   am
   241   239   243    1
   242   239   240    1
   243   240   244    1
   244   240   245    1
   245   240   241    1
   246   241   242    2
   247   224   239   am
   248   246   253    1
   249   246   247    1
   250   247   254    1
   251   247   250    1
   252   247   248    1
   253   248   249    2
   254   250   255    1
   255   250   252    1
   256   250   251    1
   257   251   256    1
   258   252   257    1
   259   252   258    1
   260   252   259    1
   261   241   246   am
   262   260   267    1
   263   260   261    1
   264   261   268    1
   265   261   264    1
   266   261   262    1
   267   262   263    2
   268   264   269    1
   269   264   265    1
   270   264   266    1
   271   265   270    1
   272   265   271    1
   273   265   272    1
   274   266   273    1
   275   266   274    1
   276   266   275    1
   277   248   260   am
   278   276   283    1
   279   276   277    1
   280   277   284    1
   281   277   280    1
   282   277   278    1
   283   278   279    2
   284   280   285    1
   285   280   281    1
   286   280   282    1
   287   281   289    1
   288   281   290    1
   289   281   291    1
   290   282   286    1
   291   282   287    1
   292   282   288    1
   293   262   276   am
   294   292   300    1
   295   292   293    1
   296   293   294    1
   297   293   301    1
   298   293   296    1
   299   294   295    2
   300   296   302    1
   301   296   303    1
   302   296   297    1
   303   297   299    1
   304   297   298    1
   305   297   304    1
   306   298   309    1
   307   298   310    1
   308   298   308    1
   309   299   305    1
   310   299   306    1
   311   299   307    1
   312   278   292   am
   313   311   315    1
   314   311   312    1
   315   312   316    1
   316   312   317    1
   317   312   313    1
   318   313   314    2
   319   294   311   am
   320   318   327    1
   321   318   319    1
   322   319   328    1
   323   319   322    1
   324   319   320    1
   325   320   321    2
   326   322   329    1
   327   322   330    1
   328   322   323    1
   329   323   331    1
   330   323   332    1
   331   323   324    1
   332   324   333    1
   333   324   334    1
   334   324   325    1
   335   325   335    1
   336   325   336    1
   337   325   326    1
   338   326   337    1
   339   326   338    1
   340   326   339    1
   341   313   318   am
   342   340   348    1
   343   340   341    1
   344   341   342    1
   345   341   349    1
   346   341   344    1
   347   342   343    2
   348   344   350    1
   349   344   351    1
   350   344   345    1
   351   345   347    1
   352   345   346    1
   353   345   352    1
   354   346   354    1
   355   346   355    1
   356   346   353    1
   357   347   356    1
   358   347   357    1
   359   347   358    1
   360   320   340   am
   361   359   368    1
   362   359   360    1
   363   360   369    1
   364   360   363    1
   365   360   361    1
   366   361   362    2
   367   363   370    1
   368   363   371    1
   369   363   364    1
   370   364   372    1
   371   364   373    1
   372   364   365    1
   373   365   366    2
   374   365   367    2
   375   342   359   am
   376   374   380    1
   377   374   375    1
   378   375   381    1
   379   375   378    1
   380   375   376    1
   381   376   377    2
   382   378   382    1
   383   378   383    1
   384   378   379    1
   385   379   384    1
   386   361   374   am
   387   385   389    1
   388   385   386    1
   389   386   390    1
   390   386   391    1
   391   386   387    1
   392   387   388    2
   393   376   385   am
   394   392   398    1
   395   392   393    1
   396   393   399    1
   397   393   396    1
   398   393   394    1
   399   394   395    2
   400   396   400    1
   401   396   401    1
   402   396   397    1
   403   397   402    1
   404   387   392   am
   405   403   404    1
   406   403   411    1
   407   404   412    1
   408   404   405    1
   409   404   407    1
   410   405   406    2
   411   407   409    1
   412   407   413    1
   413   407   408    1
   414   408   415    1
   415   408   414    1
   416   408   410    1
   417   409   418    1
   418   409   416    1
   419   409   417    1
   420   410   419    1
   421   410   421    1
   422   410   420    1
   423   394   403   am
   424   422   428    1
   425   422   423    1
   426   423   429    1
   427   423   426    1
   428   423   424    1
   429   424   425    2
   430   426   430    1
   431   426   431    1
   432   426   427    1
   433   427   432    1
   434   405   422   am
   435   433   437    1
   436   433   434    1
   437   434   443    1
   438   434   438    1
   439   434   435    1
   440   435   436    2
   441   438   444    1
   442   438   445    1
   443   438   439    1
   444   439   446    1
   445   439   447    1
   446   439   440    1
   447   440   448    1
   448   440   449    1
   449   440   441    1
   450   441   450    1
   451   441   451    1
   452   441   442    1
   453   442   452    1
   454   442   453    1
   455   442   454    1
   456   424   433   am
   457   455   459    1
   458   455   456    1
   459   456   460    1
   460   456   461    1
   461   456   457    1
   462   457   458    2
   463   435   455   am
   464   462   471    1
   465   462   463    1
   466   463   472    1
   467   463   466    1
   468   463   464    1
   469   464   465    2
   470   466   473    1
   471   466   474    1
   472   466   467    1
   473   467   475    1
   474   467   476    1
   475   467   468    1
   476   468   469    2
   477   468   470   am
   478   470   477    1
   479   470   478    1
   480   457   462   am
   481   479   488    1
   482   479   480    1
   483   480   489    1
   484   480   483    1
   485   480   481    1
   486   481   482    2
   487   483   490    1
   488   483   491    1
   489   483   484    1
   490   484   492    1
   491   484   493    1
   492   484   485    1
   493   485   486    2
   494   485   487   am
   495   487   494    1
   496   487   495    1
   497   464   479   am
   498   496   504    1
   499   496   497    1
   500   497   498    1
   501   497   505    1
   502   497   500    1
   503   498   499    2
   504   500   506    1
   505   500   507    1
   506   500   501    1
   507   501   503    1
   508   501   502    1
   509   501   508    1
   510   502   510    1
   511   502   511    1
   512   502   509    1
   513   503   512    1
   514   503   513    1
   515   503   514    1
   516   481   496   am
   517   515   522    1
   518   515   516    1
   519   516   523    1
   520   516   519    1
   521   516   517    1
   522   517   518    2
   523   519   524    1
   524   519   520    1
   525   519   521    1
   526   520   528    1
   527   520   529    1
   528   520   530    1
   529   521   525    1
   530   521   526    1
   531   521   527    1
   532   498   515   am
   533   531   539    1
   534   531   532    1
   535   532   540    1
   536   532   535    1
   537   532   533    1
   538   533   534    2
   539   535   541    1
   540   535   542    1
   541   535   536    1
   542   536   543    1
   543   536   544    1
   544   536   537    1
   545   537   538    1
   546   538   545    1
   547   538   546    1
   548   538   547    1
   549   517   531   am
   550   548   552    1
   551   548   549    1
   552   549   557    1
   553   549   553    1
   554   549   550    1
   555   550   551    2
   556   553   558    1
   557   553   559    1
   558   553   554    1
   559   554   560    1
   560   554   561    1
   561   554   555    1
   562   555   556    1
   563   556   562    1
   564   556   563    1
   565   556   564    1
   566   533   548   am
   567   565   571    1
   568   565   566    1
   569   566   569    1
   570   566   572    1
   571   566   567    1
   572   567   568    2
   573   569   574    1
   574   569   573    1
   575   569   570    1
   576   570   575    1
   577   570   571    1
   578   570   576    1
   579   571   577    1
   580   571   578    1
   581   550   565   am
   582   579   587    1
   583   579   580    1
   584   580   588    1
   585   580   583    1
   586   580   581    1
   587   581   582    2
   588   583   589    1
   589   583   590    1
   590   583   584    1
   591   584   585    2
   592   584   586   am
   593   586   591    1
   594   586   592    1
   595   567   579   am
   596   593   597    1
   597   593   594    1
   598   594   603    1
   599   594   598    1
   600   594   595    1
   601   595   596    2
   602   598   604    1
   603   598   605    1
   604   598   599    1
   605   599   606    1
   606   599   607    1
   607   599   600    1
   608   600   608    1
   609   600   609    1
   610   600   601    1
   611   601   610    1
   612   601   611    1
   613   601   602    1
   614   602   612    1
   615   602   613    1
   616   602   614    1
   617   581   593   am
   618   615   625    1
   619   615   616    1
   620   616   617    1
   621   616   626    1
   622   616   619    1
   623   617   618    2
   624   619   620    1
   625   619   627    1
   626   619   628    1
   627   620   621   ar
   628   620   622   ar
   629   621   632    1
   630   621   623   ar
   631   622   624   ar
   632   622   629    1
   633   623   630    1
   634   623   624   ar
   635   631   624    1
   636   595   615   am
   637   633   641    1
   638   633   634    1
   639   634   642    1
   640   634   637    1
   641   634   635    1
   642   635   636    2
   643   637   643    1
   644   637   644    1
   645   637   638    1
   646   638   639    2
   647   638   640   am
   648   640   645    1
   649   640   646    1
   650   617   633   am
   651   647   654    1
   652   647   648    1
   653   648   655    1
   654   648   651    1
   655   648   649    1
   656   649   650    2
   657   651   656    1
   658   651   652    1
   659   651   653    1
   660   652   657    1
   661   652   658    1
   662   652   659    1
   663   653   660    1
   664   653   661    1
   665   653   662    1
   666   635   647   am
   667   663   667    1
   668   663   664    1
   669   664   673    1
   670   664   668    1
   671   664   665    1
   672   665   666    2
   673   668   674    1
   674   668   675    1
   675   668   669    1
   676   669   676    1
   677   669   677    1
   678   669   670    1
   679   670   672    2
   680   670   671    2
   681   649   663   am
   682   678   685    1
   683   678   679    1
   684   679   686    1
   685   679   682    1
   686   679   680    1
   687   680   681    2
   688   682   687    1
   689   682   683    1
   690   682   684    1
   691   683   688    1
   692   683   689    1
   693   683   690    1
   694   684   691    1
   695   684   692    1
   696   684   693    1
   697   665   678   am
   698   694   702    1
   699   694   695    1
   700   695   696    1
   701   695   703    1
   702   695   698    1
   703   696   697    2
   704   698   704    1
   705   698   705    1
   706   698   699    1
   707   699   701    1
   708   699   700    1
   709   699   706    1
   710   700   711    1
   711   700   712    1
   712   700   710    1
   713   701   707    1
   714   701   708    1
   715   701   709    1
   716   680   694   am
   717   713   717    1
   718   713   714    1
   719   714   718    1
   720   714   719    1
   721   714   715    1
   722   715   716    2
   723   696   713   am
   724   720   721    1
   725   720   728    1
   726   721   729    1
   727   721   722    1
   728   721   724    1
   729   722   723    2
   730   724   726    1
   731   724   730    1
   732   724   725    1
   733   725   732    1
   734   725   731    1
   735   725   727    1
   736   726   738    1
   737   726   736    1
   738   726   737    1
   739   727   733    1
   740   727   735    1
   741   727   734    1
   742   715   720   am
   743   739   747    1
   744   739   740    1
   745   740   741    1
   746   740   748    1
   747   740   743    1
   748   741   742    2
   749   743   749    1
   750   743   750    1
   751   743   744    1
   752   744   746    1
   753   744   745    1
   754   744   751    1
   755   745   753    1
   756   745   754    1
   757   745   752    1
   758   746   755    1
   759   746   756    1
   760   746   757    1
   761   722   739   am
   762   758   764    1
   763   758   759    1
   764   759   765    1
   765   759   762    1
   766   759   760    1
   767   760   761    2
   768   762   766    1
   769   762   767    1
   770   762   763    1
   771   763   768    1
   772   741   758   am
   773   769   777    1
   774   769   770    1
   775   770   778    1
   776   770   773    1
   777   770   771    1
   778   771   772    2
   779   773   779    1
   780   773   780    1
   781   773   774    1
   782   774   775    2
   783   774   776    2
   784   760   769   am
   785   781   785    1
   786   781   782    1
   787   782   790    1
   788   782   786    1
   789   782   783    1
   790   783   784    2
   791   786   791    1
   792   786   792    1
   793   786   787    1
   794   787   789    2
   795   787   788    2
   796   771   781   am
   797   793   800    1
   798   793   794    1
   799   794   801    1
   800   794   797    1
   801   794   795    1
   802   795   796    2
   803   797   802    1
   804   797   798    1
   805   797   799    1
   806   798   803    1
   807   798   804    1
   808   798   805    1
   809   799   806    1
   810   799   807    1
   811   799   808    1
   812   783   793   am
   813   809   818    1
   814   809   810    1
   815   810   819    1
   816   810   813    1
   817   810   811    1
   818   811   812    2
   819   813   820    1
   820   813   821    1
   821   813   814    1
   822   814   822    1
   823   814   823    1
   824   814   815    1
   825   815   816    2
   826   815   817    2
   827   795   809   am
   828   824   831    1
   829   824   825    1
   830   825   832    1
   831   825   828    1
   832   825   826    1
   833   826   827    2
   834   828   833    1
   835   828   830    1
   836   828   829    1
   837   829   834    1
   838   830   835    1
   839   830   836    1
   840   830   837    1
   841   811   824   am
   842   838   846    1
   843   838   839    1
   844   839   847    1
   845   839   842    1
   846   839   840    1
   847   840   841    2
   848   842   848    1
   849   842   849    1
   850   842   843    1
   851   843   844    2
   852   843   845    2
   853   826   838   am
   854   850   857    1
   855   850   851    1
   856   851   858    1
   857   851   854    1
   858   851   852    1
   859   852   853    2
   860   854   859    1
   861   854   856    1
   862   854   855    1
   863   855   860    1
   864   856   861    1
   865   856   862    1
   866   856   863    1
   867   840   850   am
   868   864   871    1
   869   864   865    1
   870   865   872    1
   871   865   868    1
   872   865   866    1
   873   866   867    2
   874   868   873    1
   875   868   869    1
   876   868   870    1
   877   869   877    1
   878   869   878    1
   879   869   879    1
   880   870   874    1
   881   870   875    1
   882   870   876    1
   883   852   864   am
   884   880   885    1
   885   880   881    1
   886   881   886    1
   887   881   884    1
   888   881   882    1
   889   882   883    2
   890   884   887    1
   891   884   888    1
   892   884   889    1
   893   866   880   am
   894   890   896    1
   895   890   891    1
   896   891   894    1
   897   891   897    1
   898   891   892    1
   899   892   893    2
   900   894   899    1
   901   894   898    1
   902   894   895    1
   903   895   900    1
   904   895   896    1
   905   895   901    1
   906   896   902    1
   907   896   903    1
   908   882   890   am
   909   904   908    1
   910   904   905    1
   911   905   909    1
   912   905   910    1
   913   905   906    1
   914   906   907    2
   915   892   904   am
   916   911   920    1
   917   911   912    1
   918   912   921    1
   919   912   915    1
   920   912   913    1
   921   913   914    2
   922   915   922    1
   923   915   923    1
   924   915   916    1
   925   916   924    1
   926   916   925    1
   927   916   917    1
   928   917   918    2
   929   917   919    2
   930   906   911   am
   931   926   934    1
   932   926   927    1
   933   927   935    1
   934   927   930    1
   935   927   928    1
   936   928   929    2
   937   930   936    1
   938   930   937    1
   939   930   931    1
   940   931   932    2
   941   931   933   am
   942   933   938    1
   943   933   939    1
   944   913   926   am
   945   940   948    1
   946   940   941    1
   947   941   942    1
   948   941   949    1
   949   941   944    1
   950   942   943    2
   951   944   950    1
   952   944   951    1
   953   944   945    1
   954   945   947    1
   955   945   946    1
   956   945   952    1
   957   946   954    1
   958   946   955    1
   959   946   953    1
   960   947   956    1
   961   947   957    1
   962   947   958    1
   963   928   940   am
   964   959   968    1
   965   959   960    1
   966   960   969    1
   967   960   963    1
   968   960   961    1
   969   961   962    2
   970   963   970    1
   971   963   971    1
   972   963   964    1
   973   964   972    1
   974   964   973    1
   975   964   965    1
   976   965   974    1
   977   965   975    1
   978   965   966    1
   979   966   976    1
   980   966   977    1
   981   966   967    1
   982   967   978    1
   983   967   979    1
   984   967   980    1
   985   942   959   am
   986   981   982    1
   987   981   989    1
   988   982   990    1
   989   982   983    1
   990   982   985    1
   991   983   984    2
   992   985   987    1
   993   985   991    1
   994   985   986    1
   995   986   993    1
   996   986   992    1
   997   986   988    1
   998   987   996    1
   999   987   994    1
  1000   987   995    1
  1001   988   997    1
  1002   988   999    1
  1003   988   998    1
  1004   961   981   am
  1005  1000  1011    1
  1006  1000  1001    1
  1007  1001  1002    1
  1008  1001  1012    1
  1009  1001  1004    1
  1010  1002  1003    2
  1011  1004  1005    1
  1012  1004  1013    1
  1013  1004  1014    1
  1014  1005  1015    1
  1015  1005  1016    1
  1016  1005  1006    1
  1017  1006  1017    1
  1018  1006  1018    1
  1019  1006  1007    1
  1020  1007  1019    1
  1021  1007  1008    2
  1022  1008  1009    2
  1023  1008  1010    2
  1024  1009  1020    1
  1025  1009  1021    1
  1026  1010  1023    1
  1027  1010  1022    1
  1028   983  1000   am
  1029  1024  1032    1
  1030  1024  1025    1
  1031  1025  1026    1
  1032  1025  1033    1
  1033  1025  1028    1
  1034  1026  1027    2
  1035  1028  1034    1
  1036  1028  1035    1
  1037  1028  1029    1
  1038  1029  1031    1
  1039  1029  1030    1
  1040  1029  1036    1
  1041  1030  1038    1
  1042  1030  1039    1
  1043  1030  1037    1
  1044  1031  1040    1
  1045  1031  1041    1
  1046  1031  1042    1
  1047  1002  1024   am
  1048  1043  1047    1
  1049  1043  1044    1
  1050  1044  1053    1
  1051  1044  1048    1
  1052  1044  1045    1
  1053  1045  1046    2
  1054  1048  1054    1
  1055  1048  1055    1
  1056  1048  1049    1
  1057  1049  1056    1
  1058  1049  1057    1
  1059  1049  1050    1
  1060  1050  1058    1
  1061  1050  1059    1
  1062  1050  1051    1
  1063  1051  1060    1
  1064  1051  1061    1
  1065  1051  1052    1
  1066  1052  1062    1
  1067  1052  1063    1
  1068  1052  1064    1
  1069  1026  1043   am
  1070  1065  1069    1
  1071  1065  1066    1
  1072  1066  1070    1
  1073  1066  1071    1
  1074  1066  1067    1
  1075  1067  1068    2
  1076  1045  1065   am
  1077  1072  1073    1
  1078  1072  1076    1
  1079  1073  1081    1
  1080  1073  1074    1
  1081  1073  1077    1
  1082  1074  1075    2
  1083  1077  1079    1
  1084  1077  1082    1
  1085  1077  1078    1
  1086  1078  1084    1
  1087  1078  1083    1
  1088  1078  1080    1
  1089  1079  1087    1
  1090  1079  1085    1
  1091  1079  1086    1
  1092  1080  1088    1
  1093  1080  1090    1
  1094  1080  1089    1
  1095  1067  1072   am
  1096  1091  1095    1
  1097  1091  1092    1
  1098  1092  1101    1
  1099  1092  1096    1
  1100  1092  1093    1
  1101  1093  1094    2
  1102  1096  1102    1
  1103  1096  1103    1
  1104  1096  1097    1
  1105  1097  1104    1
  1106  1097  1105    1
  1107  1097  1098    1
  1108  1098  1099    2
  1109  1098  1100    2
  1110  1074  1091   am
  1111  1106  1110    1
  1112  1106  1107    1
  1113  1107  1116    1
  1114  1107  1111    1
  1115  1107  1108    1
  1116  1108  1109    2
  1117  1111  1117    1
  1118  1111  1118    1
  1119  1111  1112    1
  1120  1112  1119    1
  1121  1112  1120    1
  1122  1112  1113    1
  1123  1113  1114    2
  1124  1113  1115    2
  1125  1093  1106   am
  1126  1121  1125    1
  1127  1121  1122    1
  1128  1122  1131    1
  1129  1122  1126    1
  1130  1122  1123    1
  1131  1123  1124    2
  1132  1126  1132    1
  1133  1126  1133    1
  1134  1126  1127    1
  1135  1127  1134    1
  1136  1127  1135    1
  1137  1127  1128    1
  1138  1128  1130    2
  1139  1128  1129    2
  1140  1108  1121   am
  1141  1136  1145    1
  1142  1136  1137    1
  1143  1137  1146    1
  1144  1137  1140    1
  1145  1137  1138    1
  1146  1138  1139    2
  1147  1140  1147    1
  1148  1140  1148    1
  1149  1140  1141    1
  1150  1141  1149    1
  1151  1141  1150    1
  1152  1141  1142    1
  1153  1142  1143    2
  1154  1142  1144    2
  1155  1123  1136   am
  1156  1151  1152    1
  1157  1151  1155    1
  1158  1152  1160    1
  1159  1152  1153    1
  1160  1152  1156    1
  1161  1153  1154    2
  1162  1156  1157    1
  1163  1156  1161    1
  1164  1156  1158    1
  1165  1157  1166    1
  1166  1157  1164    1
  1167  1157  1165    1
  1168  1158  1163    1
  1169  1158  1162    1
  1170  1158  1159    1
  1171  1159  1167    1
  1172  1159  1169    1
  1173  1159  1168    1
  1174  1138  1151   am
  1175  1170  1178    1
  1176  1170  1171    1
  1177  1171  1172    1
  1178  1171  1179    1
  1179  1171  1174    1
  1180  1172  1173    2
  1181  1174  1180    1
  1182  1174  1181    1
  1183  1174  1175    1
  1184  1175  1177    1
  1185  1175  1176    1
  1186  1175  1182    1
  1187  1176  1187    1
  1188  1176  1188    1
  1189  1176  1186    1
  1190  1177  1183    1
  1191  1177  1184    1
  1192  1177  1185    1
  1193  1153  1170   am
  1194  1189  1195    1
  1195  1189  1190    1
  1196  1190  1193    1
  1197  1190  1196    1
  1198  1190  1191    1
  1199  1191  1192    2
  1200  1193  1198    1
  1201  1193  1197    1
  1202  1193  1194    1
  1203  1194  1199    1
  1204  1194  1195    1
  1205  1194  1200    1
  1206  1195  1201    1
  1207  1195  1202    1
  1208  1172  1189   am
  1209  1203  1207    1
  1210  1203  1204    1
  1211  1204  1208    1
  1212  1204  1209    1
  1213  1204  1205    1
  1214  1205  1206    2
  1215  1191  1203   am
  1216  1210  1221    1
  1217  1210  1211    1
  1218  1211  1222    1
  1219  1211  1214    1
  1220  1211  1212    1
  1221  1212  1213    2
  1222  1214  1223    1
  1223  1214  1224    1
  1224  1214  1215    1
  1225  1215  1216   ar
  1226  1215  1217   ar
  1227  1216  1225    1
  1228  1216  1218   ar
  1229  1217  1219   ar
  1230  1217  1226    1
  1231  1218  1227    1
  1232  1218  1220   ar
  1233  1219  1220   ar
  1234  1219  1228    1
  1235  1220  1229    1
  1236  1205  1210   am
  1237  1230  1231    1
  1238  1230  1238    1
  1239  1231  1239    1
  1240  1231  1232    1
  1241  1231  1234    1
  1242  1232  1233    2
  1243  1234  1236    1
  1244  1234  1240    1
  1245  1234  1235    1
  1246  1235  1242    1
  1247  1235  1241    1
  1248  1235  1237    1
  1249  1236  1248    1
  1250  1236  1246    1
  1251  1236  1247    1
  1252  1237  1243    1
  1253  1237  1245    1
  1254  1237  1244    1
  1255  1212  1230   am
  1256  1249  1257    1
  1257  1249  1250    1
  1258  1250  1251    1
  1259  1250  1258    1
  1260  1250  1253    1
  1261  1251  1252    2
  1262  1253  1259    1
  1263  1253  1260    1
  1264  1253  1254    1
  1265  1254  1256    1
  1266  1254  1255    1
  1267  1254  1261    1
  1268  1255  1266    1
  1269  1255  1267    1
  1270  1255  1265    1
  1271  1256  1262    1
  1272  1256  1263    1
  1273  1256  1264    1
  1274  1232  1249   am
  1275  1268  1274    1
  1276  1268  1269    1
  1277  1269  1275    1
  1278  1269  1272    1
  1279  1269  1270    1
  1280  1270  1271    2
  1281  1272  1276    1
  1282  1272  1277    1
  1283  1272  1273    1
  1284  1273  1278    1
  1285  1251  1268   am
  1286  1279  1287    1
  1287  1279  1280    1
  1288  1280  1288    1
  1289  1280  1283    1
  1290  1280  1281    1
  1291  1281  1282    2
  1292  1283  1289    1
  1293  1283  1290    1
  1294  1283  1284    1
  1295  1284  1285    2
  1296  1284  1286    2
  1297  1270  1279   am
  1298  1291  1297    1
  1299  1291  1292    1
  1300  1292  1295    1
  1301  1292  1298    1
  1302  1292  1293    1
  1303  1293  1294    2
  1304  1295  1300    1
  1305  1295  1299    1
  1306  1295  1296    1
  1307  1296  1301    1
  1308  1296  1297    1
  1309  1296  1302    1
  1310  1297  1303    1
  1311  1297  1304    1
  1312  1281  1291   am
  1313  1305  1313    1
  1314  1305  1306    1
  1315  1306  1314    1
  1316  1306  1309    1
  1317  1306  1307    1
  1318  1307  1308    2
  1319  1309  1315    1
  1320  1309  1316    1
  1321  1309  1310    1
  1322  1310  1311    2
  1323  1310  1312   am
  1324  1312  1317    1
  1325  1312  1318    1
  1326  1293  1305   am
  1327  1319  1327    1
  1328  1319  1320    1
  1329  1320  1328    1
  1330  1320  1323    1
  1331  1320  1321    1
  1332  1321  1322    2
  1333  1323  1329    1
  1334  1323  1330    1
  1335  1323  1324    1
  1336  1324  1325    2
  1337  1324  1326   am
  1338  1326  1331    1
  1339  1326  1332    1
  1340  1307  1319   am
  1341  1333  1341    1
  1342  1333  1334    1
  1343  1334  1335    1
  1344  1334  1342    1
  1345  1334  1337    1
  1346  1335  1336    2
  1347  1337  1343    1
  1348  1337  1344    1
  1349  1337  1338    1
  1350  1338  1340    1
  1351  1338  1339    1
  1352  1338  1345    1
  1353  1339  1347    1
  1354  1339  1348    1
  1355  1339  1346    1
  1356  1340  1349    1
  1357  1340  1350    1
  1358  1340  1351    1
  1359  1321  1333   am
  1360  1352  1358    1
  1361  1352  1353    1
  1362  1353  1359    1
  1363  1353  1356    1
  1364  1353  1354    1
  1365  1354  1355    2
  1366  1356  1360    1
  1367  1356  1361    1
  1368  1356  1357    1
  1369  1357  1362    1
  1370  1335  1352   am
  1371  1363  1373    1
  1372  1363  1364    1
  1373  1364  1365    1
  1374  1364  1374    1
  1375  1364  1367    1
  1376  1365  1366    2
  1377  1367  1368    1
  1378  1367  1375    1
  1379  1367  1376    1
  1380  1368  1369   ar
  1381  1368  1370   ar
  1382  1369  1371   ar
  1383  1370  1372   ar
  1384  1370  1377    1
  1385  1371  1378    1
  1386  1371  1372   ar
  1387  1379  1372    1
  1388  1354  1363   am
  1389  1380  1386    1
  1390  1380  1381    1
  1391  1381  1387    1
  1392  1381  1384    1
  1393  1381  1382    1
  1394  1382  1383    2
  1395  1384  1388    1
  1396  1384  1389    1
  1397  1384  1385    1
  1398  1385  1390    1
  1399  1365  1380   am
  1400  1391  1395    1
  1401  1391  1392    1
  1402  1392  1396    1
  1403  1392  1397    1
  1404  1392  1393    1
  1405  1393  1394    2
  1406  1382  1391   am
  1407  1398  1409    1
  1408  1398  1399    1
  1409  1399  1400    1
  1410  1399  1410    1
  1411  1399  1402    1
  1412  1400  1401    2
  1413  1402  1403    1
  1414  1402  1411    1
  1415  1402  1412    1
  1416  1403  1413    1
  1417  1403  1414    1
  1418  1403  1404    1
  1419  1404  1415    1
  1420  1404  1416    1
  1421  1404  1405    1
  1422  1405  1417    1
  1423  1405  1406    2
  1424  1406  1407    2
  1425  1406  1408    2
  1426  1407  1418    1
  1427  1407  1419    1
  1428  1408  1421    1
  1429  1408  1420    1
  1430  1393  1398   am
  1431  1422  1429    1
  1432  1422  1423    1
  1433  1423  1430    1
  1434  1423  1426    1
  1435  1423  1424    1
  1436  1424  1425    2
  1437  1426  1431    1
  1438  1426  1428    1
  1439  1426  1427    1
  1440  1427  1432    1
  1441  1428  1433    1
  1442  1428  1434    1
  1443  1428  1435    1
  1444  1400  1422   am
  1445  1436  1447    1
  1446  1436  1437    1
  1447  1437  1448    1
  1448  1437  1440    1
  1449  1437  1438    1
  1450  1438  1439    2
  1451  1440  1449    1
  1452  1440  1450    1
  1453  1440  1441    1
  1454  1441  1442   ar
  1455  1441  1443   ar
  1456  1442  1451    1
  1457  1442  1444   ar
  1458  1443  1445   ar
  1459  1443  1452    1
  1460  1444  1453    1
  1461  1444  1446   ar
  1462  1445  1446   ar
  1463  1445  1454    1
  1464  1446  1455    1
  1465  1424  1436   am
  1466  1456  1464    1
  1467  1456  1457    1
  1468  1457  1465    1
  1469  1457  1460    1
  1470  1457  1458    1
  1471  1458  1459    2
  1472  1460  1466    1
  1473  1460  1467    1
  1474  1460  1461    1
  1475  1461  1462    2
  1476  1461  1463    2
  1477  1438  1456   am
  1478  1468  1473    1
  1479  1468  1469    1
  1480  1469  1474    1
  1481  1469  1472    1
  1482  1469  1470    1
  1483  1470  1471    2
  1484  1472  1475    1
  1485  1472  1476    1
  1486  1472  1477    1
  1487  1458  1468   am
  1488  1478  1487    1
  1489  1478  1479    1
  1490  1479  1488    1
  1491  1479  1482    1
  1492  1479  1480    1
  1493  1480  1481    2
  1494  1482  1489    1
  1495  1482  1490    1
  1496  1482  1483    1
  1497  1483  1491    1
  1498  1483  1492    1
  1499  1483  1484    1
  1500  1484  1485    2
  1501  1484  1486   am
  1502  1486  1493    1
  1503  1486  1494    1
  1504  1470  1478   am
  1505  1495  1496    1
  1506  1495  1503    1
  1507  1496  1504    1
  1508  1496  1497    1
  1509  1496  1499    1
  1510  1497  1498    2
  1511  1499  1501    1
  1512  1499  1505    1
  1513  1499  1500    1
  1514  1500  1507    1
  1515  1500  1506    1
  1516  1500  1502    1
  1517  1501  1513    1
  1518  1501  1511    1
  1519  1501  1512    1
  1520  1502  1508    1
  1521  1502  1510    1
  1522  1502  1509    1
  1523  1480  1495   am
  1524  1514  1521    1
  1525  1514  1515    1
  1526  1515  1522    1
  1527  1515  1518    1
  1528  1515  1516    1
  1529  1516  1517    2
  1530  1518  1523    1
  1531  1518  1519    1
  1532  1518  1520    1
  1533  1519  1524    1
  1534  1519  1525    1
  1535  1519  1526    1
  1536  1520  1527    1
  1537  1520  1528    1
  1538  1520  1529    1
  1539  1497  1514   am
  1540  1530  1531    1
  1541  1530  1538    1
  1542  1531  1539    1
  1543  1531  1532    1
  1544  1531  1534    1
  1545  1532  1533    2
  1546  1534  1536    1
  1547  1534  1540    1
  1548  1534  1535    1
  1549  1535  1542    1
  1550  1535  1541    1
  1551  1535  1537    1
  1552  1536  1545    1
  1553  1536  1543    1
  1554  1536  1544    1
  1555  1537  1546    1
  1556  1537  1548    1
  1557  1537  1547    1
  1558  1516  1530   am
  1559  1549  1550    1
  1560  1549  1557    1
  1561  1550  1558    1
  1562  1550  1551    1
  1563  1550  1553    1
  1564  1551  1552    2
  1565  1553  1555    1
  1566  1553  1559    1
  1567  1553  1554    1
  1568  1554  1561    1
  1569  1554  1560    1
  1570  1554  1556    1
  1571  1555  1567    1
  1572  1555  1565    1
  1573  1555  1566    1
  1574  1556  1562    1
  1575  1556  1564    1
  1576  1556  1563    1
  1577  1532  1549   am
  1578  1568  1577    1
  1579  1568  1569    1
  1580  1569  1578    1
  1581  1569  1572    1
  1582  1569  1570    1
  1583  1570  1571    2
  1584  1572  1579    1
  1585  1572  1580    1
  1586  1572  1573    1
  1587  1573  1581    1
  1588  1573  1582    1
  1589  1573  1574    1
  1590  1574  1575    2
  1591  1574  1576    2
  1592  1551  1568   am
  1593  1583  1593    1
  1594  1583  1584    1
  1595  1584  1585    1
  1596  1584  1594    1
  1597  1584  1587    1
  1598  1585  1586    2
  1599  1587  1588    1
  1600  1587  1595    1
  1601  1587  1596    1
  1602  1588  1589   ar
  1603  1588  1590   ar
  1604  1589  1591   ar
  1605  1590  1592   ar
  1606  1590  1597    1
  1607  1591  1598    1
  1608  1591  1592   ar
  1609  1599  1592    1
  1610  1570  1583   am
  1611  1600  1604    1
  1612  1600  1601    1
  1613  1601  1610    1
  1614  1601  1605    1
  1615  1601  1602    1
  1616  1602  1603    2
  1617  1605  1611    1
  1618  1605  1612    1
  1619  1605  1606    1
  1620  1606  1613    1
  1621  1606  1614    1
  1622  1606  1607    1
  1623  1607  1615    1
  1624  1607  1616    1
  1625  1607  1608    1
  1626  1608  1617    1
  1627  1608  1618    1
  1628  1608  1609    1
  1629  1609  1619    1
  1630  1609  1620    1
  1631  1609  1621    1
  1632  1585  1600   am
  1633  1622  1626    1
  1634  1622  1623    1
  1635  1623  1629    1
  1636  1623  1627    1
  1637  1623  1624    1
  1638  1624  1625    2
  1639  1627  1630    1
  1640  1627  1631    1
  1641  1627  1628    1
  1642  1628  1632    1
  1643  1602  1622   am
  1644  1633  1634    1
  1645  1633  1641    1
  1646  1634  1642    1
  1647  1634  1635    1
  1648  1634  1637    1
  1649  1635  1636    2
  1650  1637  1639    1
  1651  1637  1643    1
  1652  1637  1638    1
  1653  1638  1645    1
  1654  1638  1644    1
  1655  1638  1640    1
  1656  1639  1648    1
  1657  1639  1646    1
  1658  1639  1647    1
  1659  1640  1649    1
  1660  1640  1651    1
  1661  1640  1650    1
  1662  1624  1633   am
  1663  1652  1653    1
  1664  1652  1660    1
  1665  1653  1661    1
  1666  1653  1654    1
  1667  1653  1656    1
  1668  1654  1655    2
  1669  1656  1658    1
  1670  1656  1662    1
  1671  1656  1657    1
  1672  1657  1664    1
  1673  1657  1663    1
  1674  1657  1659    1
  1675  1658  1667    1
  1676  1658  1665    1
  1677  1658  1666    1
  1678  1659  1668    1
  1679  1659  1670    1
  1680  1659  1669    1
  1681  1635  1652   am
  1682  1671  1677    1
  1683  1671  1672    1
  1684  1672  1678    1
  1685  1672  1675    1
  1686  1672  1673    1
  1687  1673  1674    2
  1688  1675  1679    1
  1689  1675  1680    1
  1690  1675  1676    1
  1691  1676  1681    1
  1692  1654  1671   am
  1693  1682  1688    1
  1694  1682  1683    1
  1695  1683  1686    1
  1696  1683  1689    1
  1697  1683  1684    1
  1698  1684  1685    2
  1699  1686  1691    1
  1700  1686  1690    1
  1701  1686  1687    1
  1702  1687  1692    1
  1703  1687  1688    1
  1704  1687  1693    1
  1705  1688  1694    1
  1706  1688  1695    1
  1707  1673  1682   am
  1708  1696  1700    1
  1709  1696  1697    1
  1710  1697  1701    1
  1711  1697  1702    1
  1712  1697  1698    1
  1713  1698  1699    2
  1714  1684  1696   am
  1715  1703  1715    1
  1716  1703  1704    1
  1717  1704  1705    1
  1718  1704  1707    1
  1719  1704  1716    1
  1720  1705  1706    2
  1721  1707  1708    1
  1722  1707  1717    1
  1723  1707  1718    1
  1724  1708  1709   ar
  1725  1708  1710   ar
  1726  1709  1719    1
  1727  1709  1711   ar
  1728  1710  1712   ar
  1729  1710  1720    1
  1730  1711  1721    1
  1731  1711  1713   ar
  1732  1712  1713   ar
  1733  1712  1722    1
  1734  1713  1714    1
  1735  1714  1723    1
  1736  1698  1703   am
  1737  1724  1732    1
  1738  1724  1725    1
  1739  1725  1733    1
  1740  1725  1728    1
  1741  1725  1726    1
  1742  1726  1727    2
  1743  1728  1734    1
  1744  1728  1735    1
  1745  1728  1729    1
  1746  1729  1730    2
  1747  1729  1731   am
  1748  1731  1736    1
  1749  1731  1737    1
  1750  1705  1724   am
  1751  1738  1743    1
  1752  1738  1739    1
  1753  1739  1744    1
  1754  1739  1742    1
  1755  1739  1740    1
  1756  1740  1741    2
  1757  1742  1745    1
  1758  1742  1746    1
  1759  1742  1747    1
  1760  1726  1738   am
  1761  1748  1755    1
  1762  1748  1749    1
  1763  1749  1756    1
  1764  1749  1752    1
  1765  1749  1750    1
  1766  1750  1751    2
  1767  1752  1757    1
  1768  1752  1753    1
  1769  1752  1754    1
  1770  1753  1761    1
  1771  1753  1762    1
  1772  1753  1763    1
  1773  1754  1758    1
  1774  1754  1759    1
  1775  1754  1760    1
  1776  1740  1748   am
  1777  1764  1772    1
  1778  1764  1765    1
  1779  1765  1766    1
  1780  1765  1773    1
  1781  1765  1768    1
  1782  1766  1767    2
  1783  1768  1774    1
  1784  1768  1775    1
  1785  1768  1769    1
  1786  1769  1771    1
  1787  1769  1770    1
  1788  1769  1776    1
  1789  1770  1778    1
  1790  1770  1779    1
  1791  1770  1777    1
  1792  1771  1780    1
  1793  1771  1781    1
  1794  1771  1782    1
  1795  1750  1764   am
  1796  1783  1793    1
  1797  1783  1784    1
  1798  1784  1785    1
  1799  1784  1794    1
  1800  1784  1787    1
  1801  1785  1786    2
  1802  1787  1788    1
  1803  1787  1795    1
  1804  1787  1796    1
  1805  1788  1789   ar
  1806  1788  1790   ar
  1807  1789  1791   ar
  1808  1790  1792   ar
  1809  1790  1797    1
  1810  1791  1798    1
  1811  1791  1792   ar
  1812  1799  1792    1
  1813  1766  1783   am
  1814  1800  1801    1
  1815  1800  1808    1
  1816  1801  1809    1
  1817  1801  1802    1
  1818  1801  1804    1
  1819  1802  1803    2
  1820  1804  1806    1
  1821  1804  1810    1
  1822  1804  1805    1
  1823  1805  1812    1
  1824  1805  1811    1
  1825  1805  1807    1
  1826  1806  1815    1
  1827  1806  1813    1
  1828  1806  1814    1
  1829  1807  1816    1
  1830  1807  1818    1
  1831  1807  1817    1
  1832  1785  1800   am
  1833  1819  1829    1
  1834  1819  1820    1
  1835  1820  1821    1
  1836  1820  1830    1
  1837  1820  1823    1
  1838  1821  1822    2
  1839  1823  1824    1
  1840  1823  1831    1
  1841  1823  1832    1
  1842  1824  1825   ar
  1843  1824  1826   ar
  1844  1825  1827   ar
  1845  1826  1828   ar
  1846  1826  1833    1
  1847  1827  1834    1
  1848  1827  1828   ar
  1849  1835  1828    1
  1850  1802  1819   am
  1851  1836  1843    1
  1852  1836  1837    1
  1853  1837  1844    1
  1854  1837  1840    1
  1855  1837  1838    1
  1856  1838  1839    2
  1857  1840  1845    1
  1858  1840  1842    1
  1859  1840  1841    1
  1860  1841  1846    1
  1861  1842  1847    1
  1862  1842  1848    1
  1863  1842  1849    1
  1864  1821  1836   am
  1865  1850  1856    1
  1866  1850  1851    1
  1867  1851  1857    1
  1868  1851  1854    1
  1869  1851  1852    1
  1870  1852  1853    2
  1871  1854  1858    1
  1872  1854  1859    1
  1873  1854  1855    1
  1874  1855  1860    1
  1875  1838  1850   am
  1876  1861  1862    1
  1877  1861  1869    1
  1878  1862  1870    1
  1879  1862  1863    1
  1880  1862  1865    1
  1881  1863  1864    2
  1882  1865  1867    1
  1883  1865  1871    1
  1884  1865  1866    1
  1885  1866  1873    1
  1886  1866  1872    1
  1887  1866  1868    1
  1888  1867  1876    1
  1889  1867  1874    1
  1890  1867  1875    1
  1891  1868  1877    1
  1892  1868  1879    1
  1893  1868  1878    1
  1894  1852  1861   am
  1895  1880  1889    1
  1896  1880  1881    1
  1897  1881  1890    1
  1898  1881  1884    1
  1899  1881  1882    1
  1900  1882  1883    2
  1901  1884  1891    1
  1902  1884  1892    1
  1903  1884  1885    1
  1904  1885  1893    1
  1905  1885  1894    1
  1906  1885  1886    1
  1907  1886  1887    2
  1908  1886  1888    2
  1909  1863  1880   am
  1910  1895  1899    1
  1911  1895  1896    1
  1912  1896  1905    1
  1913  1896  1900    1
  1914  1896  1897    1
  1915  1897  1898    2
  1916  1900  1906    1
  1917  1900  1907    1
  1918  1900  1901    1
  1919  1901  1908    1
  1920  1901  1909    1
  1921  1901  1902    1
  1922  1902  1904    2
  1923  1902  1903    2
  1924  1882  1895   am
  1925  1910  1917    1
  1926  1910  1911    1
  1927  1911  1918    1
  1928  1911  1914    1
  1929  1911  1912    1
  1930  1912  1913    2
  1931  1914  1919    1
  1932  1914  1915    1
  1933  1914  1916    1
  1934  1915  1920    1
  1935  1915  1921    1
  1936  1915  1922    1
  1937  1916  1923    1
  1938  1916  1924    1
  1939  1916  1925    1
  1940  1897  1910   am
  1941  1926  1935    1
  1942  1926  1927    1
  1943  1927  1936    1
  1944  1927  1930    1
  1945  1927  1928    1
  1946  1928  1929    2
  1947  1930  1937    1
  1948  1930  1938    1
  1949  1930  1931    1
  1950  1931  1939    1
  1951  1931  1940    1
  1952  1931  1932    1
  1953  1932  1933    2
  1954  1932  1934    2
  1955  1912  1926   am
  1956  1941  1942    1
  1957  1941  1949    1
  1958  1942  1950    1
  1959  1942  1943    1
  1960  1942  1945    1
  1961  1943  1944    2
  1962  1945  1947    1
  1963  1945  1951    1
  1964  1945  1946    1
  1965  1946  1953    1
  1966  1946  1952    1
  1967  1946  1948    1
  1968  1947  1956    1
  1969  1947  1954    1
  1970  1947  1955    1
  1971  1948  1957    1
  1972  1948  1959    1
  1973  1948  1958    1
  1974  1928  1941   am
  1975  1960  1967    1
  1976  1960  1961    1
  1977  1961  1968    1
  1978  1961  1964    1
  1979  1961  1962    1
  1980  1962  1963    2
  1981  1964  1969    1
  1982  1964  1966    1
  1983  1964  1965    1
  1984  1965  1970    1
  1985  1966  1971    1
  1986  1966  1972    1
  1987  1966  1973    1
  1988  1943  1960   am
  1989  1974  1979    1
  1990  1974  1975    1
  1991  1975  1980    1
  1992  1975  1978    1
  1993  1975  1976    1
  1994  1976  1977    2
  1995  1978  1981    1
  1996  1978  1982    1
  1997  1978  1983    1
  1998  1962  1974   am
  1999  1984  1992    1
  2000  1984  1985    1
  2001  1985  1986    1
  2002  1985  1993    1
  2003  1985  1988    1
  2004  1986  1987    2
  2005  1988  1994    1
  2006  1988  1995    1
  2007  1988  1989    1
  2008  1989  1991    1
  2009  1989  1990    1
  2010  1989  1996    1
  2011  1990  2001    1
  2012  1990  2002    1
  2013  1990  2000    1
  2014  1991  1997    1
  2015  1991  1998    1
  2016  1991  1999    1
  2017  1976  1984   am
  2018  2003  2004    1
  2019  2003  2011    1
  2020  2004  2012    1
  2021  2004  2005    1
  2022  2004  2007    1
  2023  2005  2006    2
  2024  2007  2009    1
  2025  2007  2013    1
  2026  2007  2008    1
  2027  2008  2015    1
  2028  2008  2014    1
  2029  2008  2010    1
  2030  2009  2018    1
  2031  2009  2016    1
  2032  2009  2017    1
  2033  2010  2019    1
  2034  2010  2021    1
  2035  2010  2020    1
  2036  1986  2003   am
  2037  2022  2028    1
  2038  2022  2023    1
  2039  2023  2029    1
  2040  2023  2026    1
  2041  2023  2024    1
  2042  2024  2025    2
  2043  2026  2030    1
  2044  2026  2031    1
  2045  2026  2027    1
  2046  2027  2032    1
  2047  2005  2022   am
  2048  2033  2041    1
  2049  2033  2034    1
  2050  2034  2035    1
  2051  2034  2042    1
  2052  2034  2037    1
  2053  2035  2036    2
  2054  2037  2043    1
  2055  2037  2044    1
  2056  2037  2038    1
  2057  2038  2040    1
  2058  2038  2039    1
  2059  2038  2045    1
  2060  2039  2050    1
  2061  2039  2051    1
  2062  2039  2049    1
  2063  2040  2046    1
  2064  2040  2047    1
  2065  2040  2048    1
  2066  2024  2033   am
  2067  2052  2059    1
  2068  2052  2053    1
  2069  2053  2060    1
  2070  2053  2056    1
  2071  2053  2054    1
  2072  2054  2055    2
  2073  2056  2061    1
  2074  2056  2057    1
  2075  2056  2058    1
  2076  2057  2065    1
  2077  2057  2066    1
  2078  2057  2067    1
  2079  2058  2062    1
  2080  2058  2063    1
  2081  2058  2064    1
  2082  2035  2052   am
  2083  2068  2076    1
  2084  2068  2069    1
  2085  2069  2077    1
  2086  2069  2072    1
  2087  2069  2070    1
  2088  2070  2071    2
  2089  2072  2078    1
  2090  2072  2079    1
  2091  2072  2073    1
  2092  2073  2074    2
  2093  2073  2075    2
  2094  2054  2068   am
  2095  2080  2089    1
  2096  2080  2081    1
  2097  2081  2090    1
  2098  2081  2084    1
  2099  2081  2082    1
  2100  2082  2083    2
  2101  2084  2091    1
  2102  2084  2092    1
  2103  2084  2085    1
  2104  2085  2093    1
  2105  2085  2094    1
  2106  2085  2086    1
  2107  2086  2095    1
  2108  2086  2096    1
  2109  2086  2087    1
  2110  2087  2097    1
  2111  2087  2098    1
  2112  2087  2088    1
  2113  2088  2099    1
  2114  2088  2100    1
  2115  2088  2101    1
  2116  2070  2080   am
  2117  2102  2111    1
  2118  2102  2103    1
  2119  2103  2112    1
  2120  2103  2106    1
  2121  2103  2104    1
  2122  2104  2105    2
  2123  2106  2113    1
  2124  2106  2114    1
  2125  2106  2107    1
  2126  2107  2115    1
  2127  2107  2116    1
  2128  2107  2108    1
  2129  2108  2117    1
  2130  2108  2118    1
  2131  2108  2109    1
  2132  2109  2119    1
  2133  2109  2120    1
  2134  2109  2110    1
  2135  2110  2121    1
  2136  2110  2122    1
  2137  2110  2123    1
  2138  2082  2102   am
  2139  2124  2130    1
  2140  2124  2125    1
  2141  2125  2131    1
  2142  2125  2128    1
  2143  2125  2126    1
  2144  2126  2127    2
  2145  2128  2132    1
  2146  2128  2133    1
  2147  2128  2129    1
  2148  2129  2134    1
  2149  2104  2124   am
  2150  2135  2139    1
  2151  2135  2136    1
  2152  2136  2140    1
  2153  2136  2141    1
  2154  2136  2137    1
  2155  2137  2138    2
  2156  2126  2135   am
  2157  2142  2151    1
  2158  2142  2143    1
  2159  2143  2152    1
  2160  2143  2146    1
  2161  2143  2144    1
  2162  2144  2145    2
  2163  2146  2153    1
  2164  2146  2154    1
  2165  2146  2147    1
  2166  2147  2155    1
  2167  2147  2156    1
  2168  2147  2148    1
  2169  2148  2149    2
  2170  2148  2150    2
  2171  2137  2142   am
  2172  2157  2166    1
  2173  2157  2158    1
  2174  2158  2167    1
  2175  2158  2161    1
  2176  2158  2159    1
  2177  2159  2160    2
  2178  2161  2168    1
  2179  2161  2169    1
  2180  2161  2162    1
  2181  2162  2170    1
  2182  2162  2171    1
  2183  2162  2163    1
  2184  2163  2172    1
  2185  2163  2173    1
  2186  2163  2164    1
  2187  2164  2174    1
  2188  2164  2175    1
  2189  2164  2165    1
  2190  2165  2176    1
  2191  2165  2177    1
  2192  2165  2178    1
  2193  2144  2157   am
  2194  2179  2185    1
  2195  2179  2180    1
  2196  2180  2186    1
  2197  2180  2183    1
  2198  2180  2181    1
  2199  2181  2182    2
  2200  2183  2187    1
  2201  2183  2188    1
  2202  2183  2184    1
  2203  2184  2189    1
  2204  2159  2179   am
  2205  2190  2199    1
  2206  2190  2191    1
  2207  2191  2200    1
  2208  2191  2194    1
  2209  2191  2192    1
  2210  2192  2193    2
  2211  2194  2201    1
  2212  2194  2202    1
  2213  2194  2195    1
  2214  2195  2203    1
  2215  2195  2204    1
  2216  2195  2196    1
  2217  2196  2205    1
  2218  2196  2206    1
  2219  2196  2197    1
  2220  2197  2207    1
  2221  2197  2208    1
  2222  2197  2198    1
  2223  2198  2209    1
  2224  2198  2210    1
  2225  2198  2211    1
  2226  2181  2190   am
  2227  2212  2219    1
  2228  2212  2213    1
  2229  2213  2220    1
  2230  2213  2216    1
  2231  2213  2214    1
  2232  2214  2215    2
  2233  2216  2221    1
  2234  2216  2218    1
  2235  2216  2217    1
  2236  2217  2222    1
  2237  2218  2223    1
  2238  2218  2224    1
  2239  2218  2225    1
  2240  2192  2212   am
  2241  2226  2237    1
  2242  2226  2227    1
  2243  2227  2228    1
  2244  2227  2238    1
  2245  2227  2230    1
  2246  2228  2229    2
  2247  2230  2231    1
  2248  2230  2239    1
  2249  2230  2240    1
  2250  2231  2241    1
  2251  2231  2242    1
  2252  2231  2232    1
  2253  2232  2243    1
  2254  2232  2244    1
  2255  2232  2233    1
  2256  2233  2245    1
  2257  2233  2234    2
  2258  2234  2235    2
  2259  2234  2236    2
  2260  2235  2246    1
  2261  2235  2247    1
  2262  2236  2249    1
  2263  2236  2248    1
  2264  2214  2226   am
  2265  2250  2256    1
  2266  2250  2251    1
  2267  2251  2254    1
  2268  2251  2257    1
  2269  2251  2252    1
  2270  2252  2253    2
  2271  2254  2259    1
  2272  2254  2258    1
  2273  2254  2255    1
  2274  2255  2260    1
  2275  2255  2256    1
  2276  2255  2261    1
  2277  2256  2262    1
  2278  2256  2263    1
  2279  2228  2250   am
  2280  2264  2268    1
  2281  2264  2265    1
  2282  2265  2266    1
  2283  2265  2276    1
  2284  2265  2269    1
  2285  2266  2267    2
  2286  2269  2270    1
  2287  2269  2277    1
  2288  2269  2278    1
  2289  2270  2279    1
  2290  2270  2280    1
  2291  2270  2271    1
  2292  2271  2281    1
  2293  2271  2282    1
  2294  2271  2272    1
  2295  2272  2283    1
  2296  2272  2273    2
  2297  2273  2275    2
  2298  2273  2274    2
  2299  2274  2285    1
  2300  2274  2284    1
  2301  2275  2286    1
  2302  2275  2287    1
  2303  2252  2264   am
  2304  2288  2299    1
  2305  2288  2289    1
  2306  2289  2300    1
  2307  2289  2292    1
  2308  2289  2290    1
  2309  2290  2291    2
  2310  2292  2301    1
  2311  2292  2302    1
  2312  2292  2293    1
  2313  2293  2294   ar
  2314  2293  2295   ar
  2315  2294  2303    1
  2316  2294  2296   ar
  2317  2295  2297   ar
  2318  2295  2304    1
  2319  2296  2305    1
  2320  2296  2298   ar
  2321  2297  2298   ar
  2322  2297  2306    1
  2323  2298  2307    1
  2324  2266  2288   am
  2325  2308  2315    1
  2326  2308  2309    1
  2327  2309  2316    1
  2328  2309  2312    1
  2329  2309  2310    1
  2330  2310  2311    2
  2331  2312  2317    1
  2332  2312  2313    1
  2333  2312  2314    1
  2334  2313  2321    1
  2335  2313  2322    1
  2336  2313  2323    1
  2337  2314  2318    1
  2338  2314  2319    1
  2339  2314  2320    1
  2340  2290  2308   am
  2341  2324  2333    1
  2342  2324  2325    1
  2343  2325  2334    1
  2344  2325  2328    1
  2345  2325  2326    1
  2346  2326  2327    2
  2347  2328  2335    1
  2348  2328  2336    1
  2349  2328  2329    1
  2350  2329  2337    1
  2351  2329  2338    1
  2352  2329  2330    1
  2353  2330  2339    1
  2354  2330  2340    1
  2355  2330  2331    1
  2356  2331  2341    1
  2357  2331  2342    1
  2358  2331  2332    1
  2359  2332  2343    1
  2360  2332  2344    1
  2361  2332  2345    1
  2362  2310  2324   am
  2363  2346  2355    1
  2364  2346  2347    1
  2365  2347  2356    1
  2366  2347  2350    1
  2367  2347  2348    1
  2368  2348  2349    2
  2369  2350  2357    1
  2370  2350  2358    1
  2371  2350  2351    1
  2372  2351  2359    1
  2373  2351  2360    1
  2374  2351  2352    1
  2375  2352  2353    2
  2376  2352  2354   am
  2377  2354  2361    1
  2378  2354  2362    1
  2379  2326  2346   am
  2380  2363  2371    1
  2381  2363  2364    1
  2382  2364  2372    1
  2383  2364  2367    1
  2384  2364  2365    1
  2385  2365  2366    2
  2386  2367  2373    1
  2387  2367  2374    1
  2388  2367  2368    1
  2389  2368  2369    2
  2390  2368  2370    2
  2391  2348  2363   am
  2392  2375  2384    1
  2393  2375  2376    1
  2394  2376  2385    1
  2395  2376  2379    1
  2396  2376  2377    1
  2397  2377  2378    2
  2398  2379  2386    1
  2399  2379  2387    1
  2400  2379  2380    1
  2401  2380  2388    1
  2402  2380  2389    1
  2403  2380  2381    1
  2404  2381  2382    2
  2405  2381  2383   am
  2406  2383  2390    1
  2407  2383  2391    1
  2408  2365  2375   am
  2409  2392  2399    1
  2410  2392  2393    1
  2411  2393  2400    1
  2412  2393  2396    1
  2413  2393  2394    1
  2414  2394  2395    2
  2415  2396  2401    1
  2416  2396  2397    1
  2417  2396  2398    1
  2418  2397  2405    1
  2419  2397  2406    1
  2420  2397  2407    1
  2421  2398  2402    1
  2422  2398  2403    1
  2423  2398  2404    1
  2424  2377  2392   am
  2425  2408  2414    1
  2426  2408  2409    1
  2427  2409  2415    1
  2428  2409  2412    1
  2429  2409  2410    1
  2430  2410  2411    2
  2431  2412  2416    1
  2432  2412  2417    1
  2433  2412  2413    1
  2434  2413  2418    1
  2435  2394  2408   am
  2436  2419  2420    1
  2437  2419  2427    1
  2438  2420  2428    1
  2439  2420  2421    1
  2440  2420  2423    1
  2441  2421  2422    2
  2442  2423  2425    1
  2443  2423  2429    1
  2444  2423  2424    1
  2445  2424  2431    1
  2446  2424  2430    1
  2447  2424  2426    1
  2448  2425  2437    1
  2449  2425  2435    1
  2450  2425  2436    1
  2451  2426  2432    1
  2452  2426  2434    1
  2453  2426  2433    1
  2454  2410  2419   am
  2455  2438  2443    1
  2456  2438  2439    1
  2457  2439  2444    1
  2458  2439  2442    1
  2459  2439  2440    1
  2460  2440  2441    2
  2461  2442  2445    1
  2462  2442  2446    1
  2463  2442  2447    1
  2464  2421  2438   am
  2465  2448  2459    1
  2466  2448  2449    1
  2467  2449  2450    1
  2468  2449  2460    1
  2469  2449  2452    1
  2470  2450  2451    2
  2471  2452  2453    1
  2472  2452  2461    1
  2473  2452  2462    1
  2474  2453  2463    1
  2475  2453  2464    1
  2476  2453  2454    1
  2477  2454  2465    1
  2478  2454  2466    1
  2479  2454  2455    1
  2480  2455  2467    1
  2481  2455  2456    2
  2482  2456  2457    2
  2483  2456  2458    2
  2484  2457  2468    1
  2485  2457  2469    1
  2486  2458  2471    1
  2487  2458  2470    1
  2488  2440  2448   am
  2489  2472  2480    1
  2490  2472  2473    1
  2491  2473  2474    1
  2492  2473  2481    1
  2493  2473  2476    1
  2494  2474  2475    2
  2495  2476  2482    1
  2496  2476  2483    1
  2497  2476  2477    1
  2498  2477  2479    1
  2499  2477  2478    1
  2500  2477  2484    1
  2501  2478  2486    1
  2502  2478  2487    1
  2503  2478  2485    1
  2504  2479  2488    1
  2505  2479  2489    1
  2506  2479  2490    1
  2507  2450  2472   am
  2508  2491  2502    1
  2509  2491  2492    1
  2510  2492  2493    1
  2511  2492  2503    1
  2512  2492  2495    1
  2513  2493  2494    2
  2514  2495  2496    1
  2515  2495  2504    1
  2516  2495  2505    1
  2517  2496  2506    1
  2518  2496  2507    1
  2519  2496  2497    1
  2520  2497  2508    1
  2521  2497  2509    1
  2522  2497  2498    1
  2523  2498  2510    1
  2524  2498  2499    2
  2525  2499  2500    2
  2526  2499  2501    2
  2527  2500  2511    1
  2528  2500  2512    1
  2529  2501  2514    1
  2530  2501  2513    1
  2531  2474  2491   am
  2532  2515  2522    1
  2533  2515  2516    1
  2534  2516  2523    1
  2535  2516  2519    1
  2536  2516  2517    1
  2537  2517  2518    2
  2538  2519  2524    1
  2539  2519  2521    1
  2540  2519  2520    1
  2541  2520  2525    1
  2542  2521  2526    1
  2543  2521  2527    1
  2544  2521  2528    1
  2545  2493  2515   am
  2546  2529  2534    1
  2547  2529  2530    1
  2548  2530  2535    1
  2549  2530  2533    1
  2550  2530  2531    1
  2551  2531  2532    2
  2552  2533  2536    1
  2553  2533  2537    1
  2554  2533  2538    1
  2555  2517  2529   am
  2556  2539  2543    1
  2557  2539  2540    1
  2558  2540  2544    1
  2559  2540  2545    1
  2560  2540  2541    1
  2561  2541  2542    2
  2562  2531  2539   am
  2563  2546  2550    1
  2564  2546  2547    1
  2565  2547  2554    1
  2566  2547  2551    1
  2567  2547  2548    1
  2568  2548  2549    2
  2569  2551  2555    1
  2570  2551  2552    1
  2571  2551  2553    1
  2572  2552  2556    1
  2573  2552  2557    1
  2574  2552  2558    1
  2575  2553  2559    1
  2576  2541  2546   am
  2577  2560  2561    1
  2578  2560  2568    1
  2579  2561  2569    1
  2580  2561  2562    1
  2581  2561  2564    1
  2582  2562  2563    2
  2583  2564  2566    1
  2584  2564  2570    1
  2585  2564  2565    1
  2586  2565  2572    1
  2587  2565  2571    1
  2588  2565  2567    1
  2589  2566  2578    1
  2590  2566  2576    1
  2591  2566  2577    1
  2592  2567  2573    1
  2593  2567  2575    1
  2594  2567  2574    1
  2595  2548  2560   am
  2596  2579  2585    1
  2597  2579  2580    1
  2598  2580  2586    1
  2599  2580  2583    1
  2600  2580  2581    1
  2601  2581  2582    2
  2602  2583  2587    1
  2603  2583  2588    1
  2604  2583  2584    1
  2605  2584  2589    1
  2606  2562  2579   am
  2607  2590  2598    1
  2608  2590  2591    1
  2609  2591  2592    1
  2610  2591  2599    1
  2611  2591  2594    1
  2612  2592  2593    2
  2613  2594  2600    1
  2614  2594  2601    1
  2615  2594  2595    1
  2616  2595  2597    1
  2617  2595  2596    1
  2618  2595  2602    1
  2619  2596  2607    1
  2620  2596  2608    1
  2621  2596  2606    1
  2622  2597  2603    1
  2623  2597  2604    1
  2624  2597  2605    1
  2625  2581  2590   am
  2626  2609  2618    1
  2627  2609  2610    1
  2628  2610  2619    1
  2629  2610  2613    1
  2630  2610  2611    1
  2631  2611  2612    2
  2632  2613  2620    1
  2633  2613  2621    1
  2634  2613  2614    1
  2635  2614  2622    1
  2636  2614  2623    1
  2637  2614  2615    1
  2638  2615  2616    2
  2639  2615  2617    2
  2640  2592  2609   am
  2641  2624  2631    1
  2642  2624  2625    1
  2643  2625  2632    1
  2644  2625  2628    1
  2645  2625  2626    1
  2646  2626  2627    2
  2647  2628  2633    1
  2648  2628  2630    1
  2649  2628  2629    1
  2650  2629  2634    1
  2651  2630  2635    1
  2652  2630  2636    1
  2653  2630  2637    1
  2654  2611  2624   am
  2655  2638  2649    1
  2656  2638  2639    1
  2657  2639  2650    1
  2658  2639  2642    1
  2659  2639  2640    1
  2660  2640  2641    2
  2661  2642  2651    1
  2662  2642  2652    1
  2663  2642  2643    1
  2664  2643  2644   ar
  2665  2643  2645   ar
  2666  2644  2653    1
  2667  2644  2646   ar
  2668  2645  2647   ar
  2669  2645  2654    1
  2670  2646  2655    1
  2671  2646  2648   ar
  2672  2647  2648   ar
  2673  2647  2656    1
  2674  2648  2657    1
  2675  2626  2638   am
  2676  2658  2667    1
  2677  2658  2659    1
  2678  2659  2668    1
  2679  2659  2662    1
  2680  2659  2660    1
  2681  2660  2661    2
  2682  2662  2669    1
  2683  2662  2670    1
  2684  2662  2663    1
  2685  2663  2671    1
  2686  2663  2672    1
  2687  2663  2664    1
  2688  2664  2673    1
  2689  2664  2674    1
  2690  2664  2665    1
  2691  2665  2675    1
  2692  2665  2676    1
  2693  2665  2666    1
  2694  2666  2677    1
  2695  2666  2678    1
  2696  2666  2679    1
  2697  2640  2658   am
  2698  2680  2688    1
  2699  2680  2681    1
  2700  2681  2689    1
  2701  2681  2684    1
  2702  2681  2682    1
  2703  2682  2683    2
  2704  2684  2690    1
  2705  2684  2691    1
  2706  2684  2685    1
  2707  2685  2686    2
  2708  2685  2687    2
  2709  2660  2680   am
  2710  2692  2703    1
  2711  2692  2693    1
  2712  2693  2704    1
  2713  2693  2696    1
  2714  2693  2694    1
  2715  2694  2695    2
  2716  2696  2705    1
  2717  2696  2706    1
  2718  2696  2697    1
  2719  2697  2698   ar
  2720  2697  2699   ar
  2721  2698  2707    1
  2722  2698  2700   ar
  2723  2699  2701   ar
  2724  2699  2708    1
  2725  2700  2709    1
  2726  2700  2702   ar
  2727  2701  2702   ar
  2728  2701  2710    1
  2729  2702  2711    1
  2730  2682  2692   am
  2731  2712  2718    1
  2732  2712  2713    1
  2733  2713  2716    1
  2734  2713  2719    1
  2735  2713  2714    1
  2736  2714  2715    2
  2737  2716  2721    1
  2738  2716  2720    1
  2739  2716  2717    1
  2740  2717  2722    1
  2741  2717  2718    1
  2742  2717  2723    1
  2743  2718  2724    1
  2744  2718  2725    1
  2745  2694  2712   am
  2746  2726  2730    1
  2747  2726  2727    1
  2748  2727  2736    1
  2749  2727  2731    1
  2750  2727  2728    1
  2751  2728  2729    2
  2752  2731  2737    1
  2753  2731  2738    1
  2754  2731  2732    1
  2755  2732  2739    1
  2756  2732  2740    1
  2757  2732  2733    1
  2758  2733  2734    2
  2759  2733  2735   am
  2760  2735  2741    1
  2761  2735  2742    1
  2762  2714  2726   am
  2763  2743  2751    1
  2764  2743  2744    1
  2765  2744  2752    1
  2766  2744  2747    1
  2767  2744  2745    1
  2768  2745  2746    2
  2769  2747  2753    1
  2770  2747  2754    1
  2771  2747  2748    1
  2772  2748  2755    1
  2773  2748  2756    1
  2774  2748  2749    1
  2775  2749  2750    1
  2776  2750  2757    1
  2777  2750  2758    1
  2778  2750  2759    1
  2779  2728  2743   am
  2780  2760  2764    1
  2781  2760  2761    1
  2782  2761  2765    1
  2783  2761  2766    1
  2784  2761  2762    1
  2785  2762  2763    2
  2786  2745  2760   am
  2787  2767  2778    1
  2788  2767  2768    1
  2789  2768  2769    1
  2790  2768  2779    1
  2791  2768  2771    1
  2792  2769  2770    2
  2793  2771  2772    1
  2794  2771  2780    1
  2795  2771  2781    1
  2796  2772  2782    1
  2797  2772  2783    1
  2798  2772  2773    1
  2799  2773  2784    1
  2800  2773  2785    1
  2801  2773  2774    1
  2802  2774  2786    1
  2803  2774  2775    2
  2804  2775  2776    2
  2805  2775  2777    2
  2806  2776  2787    1
  2807  2776  2788    1
  2808  2777  2790    1
  2809  2777  2789    1
  2810  2762  2767   am
  2811  2791  2802    1
  2812  2791  2792    1
  2813  2792  2803    1
  2814  2792  2795    1
  2815  2792  2793    1
  2816  2793  2794    2
  2817  2795  2804    1
  2818  2795  2805    1
  2819  2795  2796    1
  2820  2796  2797   ar
  2821  2796  2798   ar
  2822  2797  2806    1
  2823  2797  2799   ar
  2824  2798  2800   ar
  2825  2798  2807    1
  2826  2799  2808    1
  2827  2799  2801   ar
  2828  2800  2801   ar
  2829  2800  2809    1
  2830  2801  2810    1
  2831  2769  2791   am
  2832  2811  2818    1
  2833  2811  2812    1
  2834  2812  2819    1
  2835  2812  2815    1
  2836  2812  2813    1
  2837  2813  2814    2
  2838  2815  2820    1
  2839  2815  2817    1
  2840  2815  2816    1
  2841  2816  2821    1
  2842  2817  2822    1
  2843  2817  2823    1
  2844  2817  2824    1
  2845  2793  2811   am
  2846  2825  2833    1
  2847  2825  2826    1
  2848  2826  2827    1
  2849  2826  2834    1
  2850  2826  2829    1
  2851  2827  2828    2
  2852  2829  2835    1
  2853  2829  2836    1
  2854  2829  2830    1
  2855  2830  2832    1
  2856  2830  2831    1
  2857  2830  2837    1
  2858  2831  2842    1
  2859  2831  2843    1
  2860  2831  2841    1
  2861  2832  2838    1
  2862  2832  2839    1
  2863  2832  2840    1
  2864  2813  2825   am
  2865  2844  2855    1
  2866  2844  2845    1
  2867  2845  2846    1
  2868  2845  2856    1
  2869  2845  2848    1
  2870  2846  2847    2
  2871  2848  2849    1
  2872  2848  2857    1
  2873  2848  2858    1
  2874  2849  2859    1
  2875  2849  2860    1
  2876  2849  2850    1
  2877  2850  2861    1
  2878  2850  2862    1
  2879  2850  2851    1
  2880  2851  2863    1
  2881  2851  2852    2
  2882  2852  2853    2
  2883  2852  2854    2
  2884  2853  2864    1
  2885  2853  2865    1
  2886  2854  2867    1
  2887  2854  2866    1
  2888  2827  2844   am
  2889  2868  2876    1
  2890  2868  2869    1
  2891  2869  2877    1
  2892  2869  2872    1
  2893  2869  2870    1
  2894  2870  2871    2
  2895  2872  2878    1
  2896  2872  2879    1
  2897  2872  2873    1
  2898  2873  2874    2
  2899  2873  2875    2
  2900  2846  2868   am
  2901  2880  2889    1
  2902  2880  2881    1
  2903  2881  2890    1
  2904  2881  2884    1
  2905  2881  2882    1
  2906  2882  2883    2
  2907  2884  2891    1
  2908  2884  2892    1
  2909  2884  2885    1
  2910  2885  2893    1
  2911  2885  2894    1
  2912  2885  2886    1
  2913  2886  2887    2
  2914  2886  2888    2
  2915  2870  2880   am
  2916  2895  2899    1
  2917  2895  2896    1
  2918  2896  2900    1
  2919  2896  2901    1
  2920  2896  2897    1
  2921  2897  2898    2
  2922  2882  2895   am
  2923  2902  2911    1
  2924  2902  2903    1
  2925  2903  2912    1
  2926  2903  2906    1
  2927  2903  2904    1
  2928  2904  2905    2
  2929  2906  2913    1
  2930  2906  2914    1
  2931  2906  2907    1
  2932  2907  2915    1
  2933  2907  2916    1
  2934  2907  2908    1
  2935  2908  2917    1
  2936  2908  2918    1
  2937  2908  2909    1
  2938  2909  2919    1
  2939  2909  2920    1
  2940  2909  2910    1
  2941  2910  2921    1
  2942  2910  2922    1
  2943  2910  2923    1
  2944  2897  2902   am
  2945  2924  2931    1
  2946  2924  2925    1
  2947  2925  2932    1
  2948  2925  2928    1
  2949  2925  2926    1
  2950  2926  2927    2
  2951  2928  2933    1
  2952  2928  2930    1
  2953  2928  2929    1
  2954  2929  2934    1
  2955  2930  2935    1
  2956  2930  2936    1
  2957  2930  2937    1
  2958  2904  2924   am
  2959  2938  2939    1
  2960  2938  2946    1
  2961  2939  2947    1
  2962  2939  2940    1
  2963  2939  2942    1
  2964  2940  2941    2
  2965  2942  2944    1
  2966  2942  2948    1
  2967  2942  2943    1
  2968  2943  2950    1
  2969  2943  2949    1
  2970  2943  2945    1
  2971  2944  2956    1
  2972  2944  2954    1
  2973  2944  2955    1
  2974  2945  2951    1
  2975  2945  2953    1
  2976  2945  2952    1
  2977  2926  2938   am
  2978  2957  2962    1
  2979  2957  2958    1
  2980  2958  2963    1
  2981  2958  2961    1
  2982  2958  2959    1
  2983  2959  2960    2
  2984  2961  2964    1
  2985  2961  2965    1
  2986  2961  2966    1
  2987  2940  2957   am
  2988  2967  2968    1
  2989  2967  2975    1
  2990  2968  2976    1
  2991  2968  2969    1
  2992  2968  2971    1
  2993  2969  2970    2
  2994  2971  2973    1
  2995  2971  2977    1
  2996  2971  2972    1
  2997  2972  2979    1
  2998  2972  2978    1
  2999  2972  2974    1
  3000  2973  2982    1
  3001  2973  2980    1
  3002  2973  2981    1
  3003  2974  2983    1
  3004  2974  2985    1
  3005  2974  2984    1
  3006  2959  2967   am
  3007  2986  2990    1
  3008  2986  2987    1
  3009  2987  2991    1
  3010  2987  2992    1
  3011  2987  2988    1
  3012  2988  2989    2
  3013  2969  2986   am
  3014  2993  3002    1
  3015  2993  2994    1
  3016  2994  3003    1
  3017  2994  2997    1
  3018  2994  2995    1
  3019  2995  2996    2
  3020  2997  3004    1
  3021  2997  3005    1
  3022  2997  2998    1
  3023  2998  3006    1
  3024  2998  3007    1
  3025  2998  2999    1
  3026  2999  3008    1
  3027  2999  3009    1
  3028  2999  3000    1
  3029  3000  3010    1
  3030  3000  3011    1
  3031  3000  3001    1
  3032  3001  3012    1
  3033  3001  3013    1
  3034  3001  3014    1
  3035  2988  2993   am
  3036  3015  3022    1
  3037  3015  3016    1
  3038  3016  3023    1
  3039  3016  3019    1
  3040  3016  3017    1
  3041  3017  3018    2
  3042  3019  3024    1
  3043  3019  3020    1
  3044  3019  3021    1
  3045  3020  3028    1
  3046  3020  3029    1
  3047  3020  3030    1
  3048  3021  3025    1
  3049  3021  3026    1
  3050  3021  3027    1
  3051  2995  3015   am
  3052  3031  3039    1
  3053  3031  3032    1
  3054  3032  3033    1
  3055  3032  3040    1
  3056  3032  3035    1
  3057  3033  3034    2
  3058  3035  3041    1
  3059  3035  3042    1
  3060  3035  3036    1
  3061  3036  3038    1
  3062  3036  3037    1
  3063  3036  3043    1
  3064  3037  3045    1
  3065  3037  3046    1
  3066  3037  3044    1
  3067  3038  3047    1
  3068  3038  3048    1
  3069  3038  3049    1
  3070  3017  3031   am
  3071  3050  3059    1
  3072  3050  3051    1
  3073  3051  3060    1
  3074  3051  3054    1
  3075  3051  3052    1
  3076  3052  3053    2
  3077  3054  3061    1
  3078  3054  3062    1
  3079  3054  3055    1
  3080  3055  3063    1
  3081  3055  3064    1
  3082  3055  3056    1
  3083  3056  3065    1
  3084  3056  3066    1
  3085  3056  3057    1
  3086  3057  3067    1
  3087  3057  3068    1
  3088  3057  3058    1
  3089  3058  3069    1
  3090  3058  3070    1
  3091  3058  3071    1
  3092  3033  3050   am
  3093  3072  3080    1
  3094  3072  3073    1
  3095  3073  3074    1
  3096  3073  3081    1
  3097  3073  3076    1
  3098  3074  3075    2
  3099  3076  3082    1
  3100  3076  3083    1
  3101  3076  3077    1
  3102  3077  3079    1
  3103  3077  3078    1
  3104  3077  3084    1
  3105  3078  3089    1
  3106  3078  3090    1
  3107  3078  3088    1
  3108  3079  3085    1
  3109  3079  3086    1
  3110  3079  3087    1
  3111  3052  3072   am
  3112  3091  3098    1
  3113  3091  3092    1
  3114  3092  3099    1
  3115  3092  3095    1
  3116  3092  3093    1
  3117  3093  3094    2
  3118  3095  3100    1
  3119  3095  3096    1
  3120  3095  3097    1
  3121  3096  3101    1
  3122  3096  3102    1
  3123  3096  3103    1
  3124  3097  3104    1
  3125  3097  3105    1
  3126  3097  3106    1
  3127  3074  3091   am
  3128  3107  3113    1
  3129  3107  3108    1
  3130  3108  3111    1
  3131  3108  3115    1
  3132  3108  3109    1
  3133  3109  3110    2
  3134  3109  3114    2
  3135  3111  3112    1
  3136  3111  3116    1
  3137  3111  3117    1
  3138  3112  3113    1
  3139  3112  3118    1
  3140  3112  3119    1
  3141  3113  3120    1
  3142  3113  3121    1
  3143  3093  3107   am
  3144  3122  3137    1
  3145  3122  3138    1
  3146  3122  3123    1
  3147  3122  3139    1
  3148  3123  3129    1
  3149  3123  3126    1
  3150  3123  3124    1
  3151  3124  3125    2
  3152  3126  3130    1
  3153  3126  3127    1
  3154  3126  3128    1
  3155  3127  3134    1
  3156  3127  3135    1
  3157  3127  3136    1
  3158  3128  3131    1
  3159  3128  3132    1
  3160  3128  3133    1
  3161  3140  3148    1
  3162  3140  3141    1
  3163  3141  3149    1
  3164  3141  3144    1
  3165  3141  3142    1
  3166  3142  3143    2
  3167  3144  3150    1
  3168  3144  3151    1
  3169  3144  3145    1
  3170  3145  3146    2
  3171  3145  3147   am
  3172  3147  3152    1
  3173  3147  3153    1
  3174  3124  3140   am
  3175  3154  3160    1
  3176  3154  3155    1
  3177  3155  3158    1
  3178  3155  3161    1
  3179  3155  3156    1
  3180  3156  3157    2
  3181  3158  3163    1
  3182  3158  3162    1
  3183  3158  3159    1
  3184  3159  3164    1
  3185  3159  3160    1
  3186  3159  3165    1
  3187  3160  3166    1
  3188  3160  3167    1
  3189  3142  3154   am
  3190  3168  3178    1
  3191  3168  3169    1
  3192  3169  3170    1
  3193  3169  3179    1
  3194  3169  3172    1
  3195  3170  3171    2
  3196  3172  3173    1
  3197  3172  3180    1
  3198  3172  3181    1
  3199  3173  3174   ar
  3200  3173  3175   ar
  3201  3174  3176   ar
  3202  3175  3177   ar
  3203  3175  3182    1
  3204  3176  3183    1
  3205  3176  3177   ar
  3206  3184  3177    1
  3207  3156  3168   am
  3208  3185  3189    1
  3209  3185  3186    1
  3210  3186  3190    1
  3211  3186  3191    1
  3212  3186  3187    1
  3213  3187  3188    2
  3214  3170  3185   am
  3215  3192  3204    1
  3216  3192  3193    1
  3217  3193  3194    1
  3218  3193  3196    1
  3219  3193  3205    1
  3220  3194  3195    2
  3221  3196  3197    1
  3222  3196  3206    1
  3223  3196  3207    1
  3224  3197  3198   ar
  3225  3197  3199   ar
  3226  3198  3208    1
  3227  3198  3200   ar
  3228  3199  3201   ar
  3229  3199  3209    1
  3230  3200  3210    1
  3231  3200  3202   ar
  3232  3201  3202   ar
  3233  3201  3211    1
  3234  3202  3203    1
  3235  3203  3212    1
  3236  3187  3192   am
  3237  3213  3220    1
  3238  3213  3214    1
  3239  3214  3221    1
  3240  3214  3217    1
  3241  3214  3215    1
  3242  3215  3216    2
  3243  3217  3222    1
  3244  3217  3218    1
  3245  3217  3219    1
  3246  3218  3223    1
  3247  3218  3224    1
  3248  3218  3225    1
  3249  3219  3226    1
  3250  3219  3227    1
  3251  3219  3228    1
  3252  3194  3213   am
  3253  3229  3245    1
  3254  3229  3230    1
  3255  3230  3239    1
  3256  3230  3233    1
  3257  3230  3231    1
  3258  3231  3232    2
  3259  3233  3240    1
  3260  3233  3241    1
  3261  3233  3234    1
  3262  3234  3235   ar
  3263  3234  3236   ar
  3264  3235  3237   ar
  3265  3236  3238   ar
  3266  3236  3242    1
  3267  3237  3243    1
  3268  3237  3238   ar
  3269  3244  3238    1
  3270  3215  3229   am
  3271  3246  3256    1
  3272  3246  3247    1
  3273  3247  3248    1
  3274  3247  3257    1
  3275  3247  3250    1
  3276  3248  3249    2
  3277  3250  3251    1
  3278  3250  3258    1
  3279  3250  3259    1
  3280  3251  3252   ar
  3281  3251  3253   ar
  3282  3252  3254   ar
  3283  3253  3255   ar
  3284  3253  3260    1
  3285  3254  3261    1
  3286  3254  3255   ar
  3287  3262  3255    1
  3288  3263  3269    1
  3289  3263  3264    1
  3290  3264  3270    1
  3291  3264  3267    1
  3292  3264  3265    1
  3293  3265  3266    2
  3294  3267  3271    1
  3295  3267  3272    1
  3296  3267  3268    1
  3297  3268  3273    1
  3298  3248  3263   am
  3299  3274  3288    1
  3300  3274  3275    1
  3301  3275  3276    1
  3302  3275  3289    1
  3303  3275  3278    1
  3304  3276  3277    2
  3305  3278  3290    1
  3306  3278  3291    1
  3307  3278  3279    1
  3308  3279  3281   ar
  3309  3279  3280   ar
  3310  3280  3292    1
  3311  3280  3282   ar
  3312  3281  3283   ar
  3313  3281  3284   ar
  3314  3282  3297    1
  3315  3282  3283   ar
  3316  3283  3285   ar
  3317  3284  3286   ar
  3318  3284  3293    1
  3319  3285  3294    1
  3320  3285  3287   ar
  3321  3286  3287   ar
  3322  3286  3295    1
  3323  3287  3296    1
  3324  3265  3274   am
  3325  3298  3309    1
  3326  3298  3299    1
  3327  3299  3310    1
  3328  3299  3302    1
  3329  3299  3300    1
  3330  3300  3301    2
  3331  3302  3311    1
  3332  3302  3312    1
  3333  3302  3303    1
  3334  3303  3304   ar
  3335  3303  3305   ar
  3336  3304  3313    1
  3337  3304  3306   ar
  3338  3305  3307   ar
  3339  3305  3314    1
  3340  3306  3315    1
  3341  3306  3308   ar
  3342  3307  3308   ar
  3343  3307  3316    1
  3344  3308  3317    1
  3345  3276  3298   am
  3346  3318  3324    1
  3347  3318  3319    1
  3348  3319  3322    1
  3349  3319  3325    1
  3350  3319  3320    1
  3351  3320  3321    2
  3352  3322  3327    1
  3353  3322  3326    1
  3354  3322  3323    1
  3355  3323  3328    1
  3356  3323  3324    1
  3357  3323  3329    1
  3358  3324  3330    1
  3359  3324  3331    1
  3360  3300  3318   am
  3361  3332  3336    1
  3362  3332  3333    1
  3363  3333  3337    1
  3364  3333  3338    1
  3365  3333  3334    1
  3366  3334  3335    2
  3367  3320  3332   am
  3368  3339  3351    1
  3369  3339  3340    1
  3370  3340  3341    1
  3371  3340  3343    1
  3372  3340  3352    1
  3373  3341  3342    2
  3374  3343  3344    1
  3375  3343  3353    1
  3376  3343  3354    1
  3377  3344  3345   ar
  3378  3344  3346   ar
  3379  3345  3355    1
  3380  3345  3347   ar
  3381  3346  3348   ar
  3382  3346  3356    1
  3383  3347  3357    1
  3384  3347  3349   ar
  3385  3348  3349   ar
  3386  3348  3358    1
  3387  3349  3350    1
  3388  3350  3359    1
  3389  3334  3339   am
  3390  3360  3365    1
  3391  3360  3361    1
  3392  3361  3366    1
  3393  3361  3364    1
  3394  3361  3362    1
  3395  3362  3363    2
  3396  3364  3367    1
  3397  3364  3368    1
  3398  3364  3369    1
  3399  3341  3360   am
  3400  3370  3393    1
  3401  3370  3371    1
  3402  3371  3372    1
  3403  3371  3384    1
  3404  3371  3374    1
  3405  3372  3373    2
  3406  3374  3385    1
  3407  3374  3386    1
  3408  3374  3375    1
  3409  3375  3377   ar
  3410  3375  3376   ar
  3411  3376  3387    1
  3412  3376  3378   ar
  3413  3377  3379   ar
  3414  3377  3380   ar
  3415  3378  3392    1
  3416  3378  3379   ar
  3417  3379  3381   ar
  3418  3380  3382   ar
  3419  3380  3388    1
  3420  3381  3389    1
  3421  3381  3383   ar
  3422  3382  3383   ar
  3423  3382  3390    1
  3424  3383  3391    1
  3425  3362  3370   am
  3426  3394  3395    1
  3427  3395  3396    1
  3428  3395  3408    1
  3429  3395  3398    1
  3430  3396  3397    2
  3431  3398  3409    1
  3432  3398  3410    1
  3433  3398  3399    1
  3434  3399  3401   ar
  3435  3399  3400   ar
  3436  3400  3411    1
  3437  3400  3402   ar
  3438  3401  3404   ar
  3439  3401  3403   ar
  3440  3402  3416    1
  3441  3402  3403   ar
  3442  3403  3405   ar
  3443  3404  3406   ar
  3444  3404  3412    1
  3445  3405  3407   ar
  3446  3405  3413    1
  3447  3406  3407   ar
  3448  3406  3414    1
  3449  3407  3415    1
  3450  3417  3394    1
  3451  3418  3427    1
  3452  3418  3419    1
  3453  3419  3428    1
  3454  3419  3422    1
  3455  3419  3420    1
  3456  3420  3421    2
  3457  3422  3429    1
  3458  3422  3430    1
  3459  3422  3423    1
  3460  3423  3431    1
  3461  3423  3432    1
  3462  3423  3424    1
  3463  3424  3433    1
  3464  3424  3434    1
  3465  3424  3425    1
  3466  3425  3435    1
  3467  3425  3436    1
  3468  3425  3426    1
  3469  3426  3437    1
  3470  3426  3438    1
  3471  3426  3439    1
  3472  3396  3418   am
  3473  3440  3459    1
  3474  3440  3441    1
  3475  3441  3451    1
  3476  3441  3444    1
  3477  3441  3442    1
  3478  3442  3443    2
  3479  3444  3452    1
  3480  3444  3453    1
  3481  3444  3445    1
  3482  3445  3446   ar
  3483  3445  3447   ar
  3484  3446  3454    1
  3485  3446  3448   ar
  3486  3447  3449   ar
  3487  3447  3455    1
  3488  3448  3456    1
  3489  3448  3450   ar
  3490  3449  3450   ar
  3491  3449  3457    1
  3492  3450  3458    1
  3493  3420  3440   am
@<TRIPOS>SUBSTRUCTURE
     1 GLY         1 RESIDUE           0 A     GLY     0  
     2 PRO         8 RESIDUE           0 A     PRO     0  
     3 ILE        22 RESIDUE           0 A     ILE     0  
     4 ARG        41 RESIDUE           0 A     ARG     0  
     5 LEU        65 RESIDUE           0 A     LEU     0  
     6 VAL       117 RESIDUE           0 A     VAL     0  
     7 ASP       133 RESIDUE           0 A     ASP     0  
     8 LYS       145 RESIDUE           0 A     LYS     0  
     9 TYR       167 RESIDUE           0 A     TYR     0  
    10 MET       222 RESIDUE           0 A     MET     0  
    11 THR       246 RESIDUE           0 A     THR     0  
    12 GLU       359 RESIDUE           0 A     GLU     0  
    13 SER       374 RESIDUE           0 A     SER     0  
    14 CYS       422 RESIDUE           0 A     CYS     0  
    15 GLN       462 RESIDUE           0 A     GLN     0  
    16 ASN       579 RESIDUE           0 A     ASN     0  
    17 HIS       615 RESIDUE           0 A     HIS     0  
    18 ALA       880 RESIDUE           0 A     ALA     0  
    19 PHE      1210 RESIDUE           0 A     PHE     0  
    20 TRP      3274 RESIDUE           0 A     TRP     0  
@<TRIPOS>SET
CCDC_AMINOACID STATIC ATOMS
3459 1 2 3 4 5 6 7 8 9 \
10 11 12 13 14 15 16 17 18 19 \
20 21 22 23 24 25 26 27 28 29 \
30 31 32 33 34 35 36 37 38 39 \
40 41 42 43 44 45 46 47 48 49 \
50 51 52 53 54 55 56 57 58 59 \
60 61 62 63 64 65 66 67 68 69 \
70 71 72 73 74 75 76 77 78 79 \
80 81 82 83 84 85 86 87 88 89 \
90 91 92 93 94 95 96 97 98 99 \
100 101 102 103 104 105 106 107 108 109 \
110 111 112 113 114 115 116 117 118 119 \
120 121 122 123 124 125 126 127 128 129 \
130 131 132 133 134 135 136 137 138 139 \
140 141 142 143 144 145 146 147 148 149 \
150 151 152 153 154 155 156 157 158 159 \
160 161 162 163 164 165 166 167 168 169 \
170 171 172 173 174 175 176 177 178 179 \
180 181 182 183 184 185 186 187 188 189 \
190 191 192 193 194 195 196 197 198 199 \
200 201 202 203 204 205 206 207 208 209 \
210 211 212 213 214 215 216 217 218 219 \
220 221 222 223 224 225 226 227 228 229 \
230 231 232 233 234 235 236 237 238 239 \
240 241 242 243 244 245 246 247 248 249 \
250 251 252 253 254 255 256 257 258 259 \
260 261 262 263 264 265 266 267 268 269 \
270 271 272 273 274 275 276 277 278 279 \
280 281 282 283 284 285 286 287 288 289 \
290 291 292 293 294 295 296 297 298 299 \
300 301 302 303 304 305 306 307 308 309 \
310 311 312 313 314 315 316 317 318 319 \
320 321 322 323 324 325 326 327 328 329 \
330 331 332 333 334 335 336 337 338 339 \
340 341 342 343 344 345 346 347 348 349 \
350 351 352 353 354 355 356 357 358 359 \
360 361 362 363 364 365 366 367 368 369 \
370 371 372 373 374 375 376 377 378 379 \
380 381 382 383 384 385 386 387 388 389 \
390 391 392 393 394 395 396 397 398 399 \
400 401 402 403 404 405 406 407 408 409 \
410 411 412 413 414 415 416 417 418 419 \
420 421 422 423 424 425 426 427 428 429 \
430 431 432 433 434 435 436 437 438 439 \
440 441 442 443 444 445 446 447 448 449 \
450 451 452 453 454 455 456 457 458 459 \
460 461 462 463 464 465 466 467 468 469 \
470 471 472 473 474 475 476 477 478 479 \
480 481 482 483 484 485 486 487 488 489 \
490 491 492 493 494 495 496 497 498 499 \
500 501 502 503 504 505 506 507 508 509 \
510 511 512 513 514 515 516 517 518 519 \
520 521 522 523 524 525 526 527 528 529 \
530 531 532 533 534 535 536 537 538 539 \
540 541 542 543 544 545 546 547 548 549 \
550 551 552 553 554 555 556 557 558 559 \
560 561 562 563 564 565 566 567 568 569 \
570 571 572 573 574 575 576 577 578 579 \
580 581 582 583 584 585 586 587 588 589 \
590 591 592 593 594 595 596 597 598 599 \
600 601 602 603 604 605 606 607 608 609 \
610 611 612 613 614 615 616 617 618 619 \
620 621 622 623 624 625 626 627 628 629 \
630 631 632 633 634 635 636 637 638 639 \
640 641 642 643 644 645 646 647 648 649 \
650 651 652 653 654 655 656 657 658 659 \
660 661 662 663 664 665 666 667 668 669 \
670 671 672 673 674 675 676 677 678 679 \
680 681 682 683 684 685 686 687 688 689 \
690 691 692 693 694 695 696 697 698 699 \
700 701 702 703 704 705 706 707 708 709 \
710 711 712 713 714 715 716 717 718 719 \
720 721 722 723 724 725 726 727 728 729 \
730 731 732 733 734 735 736 737 738 739 \
740 741 742 743 744 745 746 747 748 749 \
750 751 752 753 754 755 756 757 758 759 \
760 761 762 763 764 765 766 767 768 769 \
770 771 772 773 774 775 776 777 778 779 \
780 781 782 783 784 785 786 787 788 789 \
790 791 792 793 794 795 796 797 798 799 \
800 801 802 803 804 805 806 807 808 809 \
810 811 812 813 814 815 816 817 818 819 \
820 821 822 823 824 825 826 827 828 829 \
830 831 832 833 834 835 836 837 838 839 \
840 841 842 843 844 845 846 847 848 849 \
850 851 852 853 854 855 856 857 858 859 \
860 861 862 863 864 865 866 867 868 869 \
870 871 872 873 874 875 876 877 878 879 \
880 881 882 883 884 885 886 887 888 889 \
890 891 892 893 894 895 896 897 898 899 \
900 901 902 903 904 905 906 907 908 909 \
910 911 912 913 914 915 916 917 918 919 \
920 921 922 923 924 925 926 927 928 929 \
930 931 932 933 934 935 936 937 938 939 \
940 941 942 943 944 945 946 947 948 949 \
950 951 952 953 954 955 956 957 958 959 \
960 961 962 963 964 965 966 967 968 969 \
970 971 972 973 974 975 976 977 978 979 \
980 981 982 983 984 985 986 987 988 989 \
990 991 992 993 994 995 996 997 998 999 \
1000 1001 1002 1003 1004 1005 1006 1007 1008 1009 \
1010 1011 1012 1013 1014 1015 1016 1017 1018 1019 \
1020 1021 1022 1023 1024 1025 1026 1027 1028 1029 \
1030 1031 1032 1033 1034 1035 1036 1037 1038 1039 \
1040 1041 1042 1043 1044 1045 1046 1047 1048 1049 \
1050 1051 1052 1053 1054 1055 1056 1057 1058 1059 \
1060 1061 1062 1063 1064 1065 1066 1067 1068 1069 \
1070 1071 1072 1073 1074 1075 1076 1077 1078 1079 \
1080 1081 1082 1083 1084 1085 1086 1087 1088 1089 \
1090 1091 1092 1093 1094 1095 1096 1097 1098 1099 \
1100 1101 1102 1103 1104 1105 1106 1107 1108 1109 \
1110 1111 1112 1113 1114 1115 1116 1117 1118 1119 \
1120 1121 1122 1123 1124 1125 1126 1127 1128 1129 \
1130 1131 1132 1133 1134 1135 1136 1137 1138 1139 \
1140 1141 1142 1143 1144 1145 1146 1147 1148 1149 \
1150 1151 1152 1153 1154 1155 1156 1157 1158 1159 \
1160 1161 1162 1163 1164 1165 1166 1167 1168 1169 \
1170 1171 1172 1173 1174 1175 1176 1177 1178 1179 \
1180 1181 1182 1183 1184 1185 1186 1187 1188 1189 \
1190 1191 1192 1193 1194 1195 1196 1197 1198 1199 \
1200 1201 1202 1203 1204 1205 1206 1207 1208 1209 \
1210 1211 1212 1213 1214 1215 1216 1217 1218 1219 \
1220 1221 1222 1223 1224 1225 1226 1227 1228 1229 \
1230 1231 1232 1233 1234 1235 1236 1237 1238 1239 \
1240 1241 1242 1243 1244 1245 1246 1247 1248 1249 \
1250 1251 1252 1253 1254 1255 1256 1257 1258 1259 \
1260 1261 1262 1263 1264 1265 1266 1267 1268 1269 \
1270 1271 1272 1273 1274 1275 1276 1277 1278 1279 \
1280 1281 1282 1283 1284 1285 1286 1287 1288 1289 \
1290 1291 1292 1293 1294 1295 1296 1297 1298 1299 \
1300 1301 1302 1303 1304 1305 1306 1307 1308 1309 \
1310 1311 1312 1313 1314 1315 1316 1317 1318 1319 \
1320 1321 1322 1323 1324 1325 1326 1327 1328 1329 \
1330 1331 1332 1333 1334 1335 1336 1337 1338 1339 \
1340 1341 1342 1343 1344 1345 1346 1347 1348 1349 \
1350 1351 1352 1353 1354 1355 1356 1357 1358 1359 \
1360 1361 1362 1363 1364 1365 1366 1367 1368 1369 \
1370 1371 1372 1373 1374 1375 1376 1377 1378 1379 \
1380 1381 1382 1383 1384 1385 1386 1387 1388 1389 \
1390 1391 1392 1393 1394 1395 1396 1397 1398 1399 \
1400 1401 1402 1403 1404 1405 1406 1407 1408 1409 \
1410 1411 1412 1413 1414 1415 1416 1417 1418 1419 \
1420 1421 1422 1423 1424 1425 1426 1427 1428 1429 \
1430 1431 1432 1433 1434 1435 1436 1437 1438 1439 \
1440 1441 1442 1443 1444 1445 1446 1447 1448 1449 \
1450 1451 1452 1453 1454 1455 1456 1457 1458 1459 \
1460 1461 1462 1463 1464 1465 1466 1467 1468 1469 \
1470 1471 1472 1473 1474 1475 1476 1477 1478 1479 \
1480 1481 1482 1483 1484 1485 1486 1487 1488 1489 \
1490 1491 1492 1493 1494 1495 1496 1497 1498 1499 \
1500 1501 1502 1503 1504 1505 1506 1507 1508 1509 \
1510 1511 1512 1513 1514 1515 1516 1517 1518 1519 \
1520 1521 1522 1523 1524 1525 1526 1527 1528 1529 \
1530 1531 1532 1533 1534 1535 1536 1537 1538 1539 \
1540 1541 1542 1543 1544 1545 1546 1547 1548 1549 \
1550 1551 1552 1553 1554 1555 1556 1557 1558 1559 \
1560 1561 1562 1563 1564 1565 1566 1567 1568 1569 \
1570 1571 1572 1573 1574 1575 1576 1577 1578 1579 \
1580 1581 1582 1583 1584 1585 1586 1587 1588 1589 \
1590 1591 1592 1593 1594 1595 1596 1597 1598 1599 \
1600 1601 1602 1603 1604 1605 1606 1607 1608 1609 \
1610 1611 1612 1613 1614 1615 1616 1617 1618 1619 \
1620 1621 1622 1623 1624 1625 1626 1627 1628 1629 \
1630 1631 1632 1633 1634 1635 1636 1637 1638 1639 \
1640 1641 1642 1643 1644 1645 1646 1647 1648 1649 \
1650 1651 1652 1653 1654 1655 1656 1657 1658 1659 \
1660 1661 1662 1663 1664 1665 1666 1667 1668 1669 \
1670 1671 1672 1673 1674 1675 1676 1677 1678 1679 \
1680 1681 1682 1683 1684 1685 1686 1687 1688 1689 \
1690 1691 1692 1693 1694 1695 1696 1697 1698 1699 \
1700 1701 1702 1703 1704 1705 1706 1707 1708 1709 \
1710 1711 1712 1713 1714 1715 1716 1717 1718 1719 \
1720 1721 1722 1723 1724 1725 1726 1727 1728 1729 \
1730 1731 1732 1733 1734 1735 1736 1737 1738 1739 \
1740 1741 1742 1743 1744 1745 1746 1747 1748 1749 \
1750 1751 1752 1753 1754 1755 1756 1757 1758 1759 \
1760 1761 1762 1763 1764 1765 1766 1767 1768 1769 \
1770 1771 1772 1773 1774 1775 1776 1777 1778 1779 \
1780 1781 1782 1783 1784 1785 1786 1787 1788 1789 \
1790 1791 1792 1793 1794 1795 1796 1797 1798 1799 \
1800 1801 1802 1803 1804 1805 1806 1807 1808 1809 \
1810 1811 1812 1813 1814 1815 1816 1817 1818 1819 \
1820 1821 1822 1823 1824 1825 1826 1827 1828 1829 \
1830 1831 1832 1833 1834 1835 1836 1837 1838 1839 \
1840 1841 1842 1843 1844 1845 1846 1847 1848 1849 \
1850 1851 1852 1853 1854 1855 1856 1857 1858 1859 \
1860 1861 1862 1863 1864 1865 1866 1867 1868 1869 \
1870 1871 1872 1873 1874 1875 1876 1877 1878 1879 \
1880 1881 1882 1883 1884 1885 1886 1887 1888 1889 \
1890 1891 1892 1893 1894 1895 1896 1897 1898 1899 \
1900 1901 1902 1903 1904 1905 1906 1907 1908 1909 \
1910 1911 1912 1913 1914 1915 1916 1917 1918 1919 \
1920 1921 1922 1923 1924 1925 1926 1927 1928 1929 \
1930 1931 1932 1933 1934 1935 1936 1937 1938 1939 \
1940 1941 1942 1943 1944 1945 1946 1947 1948 1949 \
1950 1951 1952 1953 1954 1955 1956 1957 1958 1959 \
1960 1961 1962 1963 1964 1965 1966 1967 1968 1969 \
1970 1971 1972 1973 1974 1975 1976 1977 1978 1979 \
1980 1981 1982 1983 1984 1985 1986 1987 1988 1989 \
1990 1991 1992 1993 1994 1995 1996 1997 1998 1999 \
2000 2001 2002 2003 2004 2005 2006 2007 2008 2009 \
2010 2011 2012 2013 2014 2015 2016 2017 2018 2019 \
2020 2021 2022 2023 2024 2025 2026 2027 2028 2029 \
2030 2031 2032 2033 2034 2035 2036 2037 2038 2039 \
2040 2041 2042 2043 2044 2045 2046 2047 2048 2049 \
2050 2051 2052 2053 2054 2055 2056 2057 2058 2059 \
2060 2061 2062 2063 2064 2065 2066 2067 2068 2069 \
2070 2071 2072 2073 2074 2075 2076 2077 2078 2079 \
2080 2081 2082 2083 2084 2085 2086 2087 2088 2089 \
2090 2091 2092 2093 2094 2095 2096 2097 2098 2099 \
2100 2101 2102 2103 2104 2105 2106 2107 2108 2109 \
2110 2111 2112 2113 2114 2115 2116 2117 2118 2119 \
2120 2121 2122 2123 2124 2125 2126 2127 2128 2129 \
2130 2131 2132 2133 2134 2135 2136 2137 2138 2139 \
2140 2141 2142 2143 2144 2145 2146 2147 2148 2149 \
2150 2151 2152 2153 2154 2155 2156 2157 2158 2159 \
2160 2161 2162 2163 2164 2165 2166 2167 2168 2169 \
2170 2171 2172 2173 2174 2175 2176 2177 2178 2179 \
2180 2181 2182 2183 2184 2185 2186 2187 2188 2189 \
2190 2191 2192 2193 2194 2195 2196 2197 2198 2199 \
2200 2201 2202 2203 2204 2205 2206 2207 2208 2209 \
2210 2211 2212 2213 2214 2215 2216 2217 2218 2219 \
2220 2221 2222 2223 2224 2225 2226 2227 2228 2229 \
2230 2231 2232 2233 2234 2235 2236 2237 2238 2239 \
2240 2241 2242 2243 2244 2245 2246 2247 2248 2249 \
2250 2251 2252 2253 2254 2255 2256 2257 2258 2259 \
2260 2261 2262 2263 2264 2265 2266 2267 2268 2269 \
2270 2271 2272 2273 2274 2275 2276 2277 2278 2279 \
2280 2281 2282 2283 2284 2285 2286 2287 2288 2289 \
2290 2291 2292 2293 2294 2295 2296 2297 2298 2299 \
2300 2301 2302 2303 2304 2305 2306 2307 2308 2309 \
2310 2311 2312 2313 2314 2315 2316 2317 2318 2319 \
2320 2321 2322 2323 2324 2325 2326 2327 2328 2329 \
2330 2331 2332 2333 2334 2335 2336 2337 2338 2339 \
2340 2341 2342 2343 2344 2345 2346 2347 2348 2349 \
2350 2351 2352 2353 2354 2355 2356 2357 2358 2359 \
2360 2361 2362 2363 2364 2365 2366 2367 2368 2369 \
2370 2371 2372 2373 2374 2375 2376 2377 2378 2379 \
2380 2381 2382 2383 2384 2385 2386 2387 2388 2389 \
2390 2391 2392 2393 2394 2395 2396 2397 2398 2399 \
2400 2401 2402 2403 2404 2405 2406 2407 2408 2409 \
2410 2411 2412 2413 2414 2415 2416 2417 2418 2419 \
2420 2421 2422 2423 2424 2425 2426 2427 2428 2429 \
2430 2431 2432 2433 2434 2435 2436 2437 2438 2439 \
2440 2441 2442 2443 2444 2445 2446 2447 2448 2449 \
2450 2451 2452 2453 2454 2455 2456 2457 2458 2459 \
2460 2461 2462 2463 2464 2465 2466 2467 2468 2469 \
2470 2471 2472 2473 2474 2475 2476 2477 2478 2479 \
2480 2481 2482 2483 2484 2485 2486 2487 2488 2489 \
2490 2491 2492 2493 2494 2495 2496 2497 2498 2499 \
2500 2501 2502 2503 2504 2505 2506 2507 2508 2509 \
2510 2511 2512 2513 2514 2515 2516 2517 2518 2519 \
2520 2521 2522 2523 2524 2525 2526 2527 2528 2529 \
2530 2531 2532 2533 2534 2535 2536 2537 2538 2539 \
2540 2541 2542 2543 2544 2545 2546 2547 2548 2549 \
2550 2551 2552 2553 2554 2555 2556 2557 2558 2559 \
2560 2561 2562 2563 2564 2565 2566 2567 2568 2569 \
2570 2571 2572 2573 2574 2575 2576 2577 2578 2579 \
2580 2581 2582 2583 2584 2585 2586 2587 2588 2589 \
2590 2591 2592 2593 2594 2595 2596 2597 2598 2599 \
2600 2601 2602 2603 2604 2605 2606 2607 2608 2609 \
2610 2611 2612 2613 2614 2615 2616 2617 2618 2619 \
2620 2621 2622 2623 2624 2625 2626 2627 2628 2629 \
2630 2631 2632 2633 2634 2635 2636 2637 2638 2639 \
2640 2641 2642 2643 2644 2645 2646 2647 2648 2649 \
2650 2651 2652 2653 2654 2655 2656 2657 2658 2659 \
2660 2661 2662 2663 2664 2665 2666 2667 2668 2669 \
2670 2671 2672 2673 2674 2675 2676 2677 2678 2679 \
2680 2681 2682 2683 2684 2685 2686 2687 2688 2689 \
2690 2691 2692 2693 2694 2695 2696 2697 2698 2699 \
2700 2701 2702 2703 2704 2705 2706 2707 2708 2709 \
2710 2711 2712 2713 2714 2715 2716 2717 2718 2719 \
2720 2721 2722 2723 2724 2725 2726 2727 2728 2729 \
2730 2731 2732 2733 2734 2735 2736 2737 2738 2739 \
2740 2741 2742 2743 2744 2745 2746 2747 2748 2749 \
2750 2751 2752 2753 2754 2755 2756 2757 2758 2759 \
2760 2761 2762 2763 2764 2765 2766 2767 2768 2769 \
2770 2771 2772 2773 2774 2775 2776 2777 2778 2779 \
2780 2781 2782 2783 2784 2785 2786 2787 2788 2789 \
2790 2791 2792 2793 2794 2795 2796 2797 2798 2799 \
2800 2801 2802 2803 2804 2805 2806 2807 2808 2809 \
2810 2811 2812 2813 2814 2815 2816 2817 2818 2819 \
2820 2821 2822 2823 2824 2825 2826 2827 2828 2829 \
2830 2831 2832 2833 2834 2835 2836 2837 2838 2839 \
2840 2841 2842 2843 2844 2845 2846 2847 2848 2849 \
2850 2851 2852 2853 2854 2855 2856 2857 2858 2859 \
2860 2861 2862 2863 2864 2865 2866 2867 2868 2869 \
2870 2871 2872 2873 2874 2875 2876 2877 2878 2879 \
2880 2881 2882 2883 2884 2885 2886 2887 2888 2889 \
2890 2891 2892 2893 2894 2895 2896 2897 2898 2899 \
2900 2901 2902 2903 2904 2905 2906 2907 2908 2909 \
2910 2911 2912 2913 2914 2915 2916 2917 2918 2919 \
2920 2921 2922 2923 2924 2925 2926 2927 2928 2929 \
2930 2931 2932 2933 2934 2935 2936 2937 2938 2939 \
2940 2941 2942 2943 2944 2945 2946 2947 2948 2949 \
2950 2951 2952 2953 2954 2955 2956 2957 2958 2959 \
2960 2961 2962 2963 2964 2965 2966 2967 2968 2969 \
2970 2971 2972 2973 2974 2975 2976 2977 2978 2979 \
2980 2981 2982 2983 2984 2985 2986 2987 2988 2989 \
2990 2991 2992 2993 2994 2995 2996 2997 2998 2999 \
3000 3001 3002 3003 3004 3005 3006 3007 3008 3009 \
3010 3011 3012 3013 3014 3015 3016 3017 3018 3019 \
3020 3021 3022 3023 3024 3025 3026 3027 3028 3029 \
3030 3031 3032 3033 3034 3035 3036 3037 3038 3039 \
3040 3041 3042 3043 3044 3045 3046 3047 3048 3049 \
3050 3051 3052 3053 3054 3055 3056 3057 3058 3059 \
3060 3061 3062 3063 3064 3065 3066 3067 3068 3069 \
3070 3071 3072 3073 3074 3075 3076 3077 3078 3079 \
3080 3081 3082 3083 3084 3085 3086 3087 3088 3089 \
3090 3091 3092 3093 3094 3095 3096 3097 3098 3099 \
3100 3101 3102 3103 3104 3105 3106 3107 3108 3109 \
3110 3111 3112 3113 3114 3115 3116 3117 3118 3119 \
3120 3121 3122 3123 3124 3125 3126 3127 3128 3129 \
3130 3131 3132 3133 3134 3135 3136 3137 3138 3139 \
3140 3141 3142 3143 3144 3145 3146 3147 3148 3149 \
3150 3151 3152 3153 3154 3155 3156 3157 3158 3159 \
3160 3161 3162 3163 3164 3165 3166 3167 3168 3169 \
3170 3171 3172 3173 3174 3175 3176 3177 3178 3179 \
3180 3181 3182 3183 3184 3185 3186 3187 3188 3189 \
3190 3191 3192 3193 3194 3195 3196 3197 3198 3199 \
3200 3201 3202 3203 3204 3205 3206 3207 3208 3209 \
3210 3211 3212 3213 3214 3215 3216 3217 3218 3219 \
3220 3221 3222 3223 3224 3225 3226 3227 3228 3229 \
3230 3231 3232 3233 3234 3235 3236 3237 3238 3239 \
3240 3241 3242 3243 3244 3245 3246 3247 3248 3249 \
3250 3251 3252 3253 3254 3255 3256 3257 3258 3259 \
3260 3261 3262 3263 3264 3265 3266 3267 3268 3269 \
3270 3271 3272 3273 3274 3275 3276 3277 3278 3279 \
3280 3281 3282 3283 3284 3285 3286 3287 3288 3289 \
3290 3291 3292 3293 3294 3295 3296 3297 3298 3299 \
3300 3301 3302 3303 3304 3305 3306 3307 3308 3309 \
3310 3311 3312 3313 3314 3315 3316 3317 3318 3319 \
3320 3321 3322 3323 3324 3325 3326 3327 3328 3329 \
3330 3331 3332 3333 3334 3335 3336 3337 3338 3339 \
3340 3341 3342 3343 3344 3345 3346 3347 3348 3349 \
3350 3351 3352 3353 3354 3355 3356 3357 3358 3359 \
3360 3361 3362 3363 3364 3365 3366 3367 3368 3369 \
3370 3371 3372 3373 3374 3375 3376 3377 3378 3379 \
3380 3381 3382 3383 3384 3385 3386 3387 3388 3389 \
3390 3391 3392 3393 3394 3395 3396 3397 3398 3399 \
3400 3401 3402 3403 3404 3405 3406 3407 3408 3409 \
3410 3411 3412 3413 3414 3415 3416 3417 3418 3419 \
3420 3421 3422 3423 3424 3425 3426 3427 3428 3429 \
3430 3431 3432 3433 3434 3435 3436 3437 3438 3439 \
3440 3441 3442 3443 3444 3445 3446 3447 3448 3449 \
3450 3451 3452 3453 3454 3455 3456 3457 3458 3459 
