
@<TRIPOS>MOLECULE
1
    45 0 1
SMALL
NO_CHARGES


@<TRIPOS>ATOM
      1 C          -34.3544 129.6504  30.6645 Du             1 RES                0.0000
      2 C          -34.5823 134.0980  32.9875 Du             1 RES                0.0000
      3 C          -28.8912 124.6052  28.1296 Du             1 RES                0.0000
      4 C          -32.0210 127.0644  31.1935 Du             1 RES                0.0000
      5 C          -33.7888 137.7702  33.1401 Du             1 RES                0.0000
      6 C          -29.6534 136.4572  35.6709 Du             1 RES                0.0000
      7 C          -28.2599 132.3567  26.1331 Du             1 RES                0.0000
      8 C          -29.4884 127.6766  27.4812 Du             1 RES                0.0000
      9 C          -29.3976 132.3501  30.7509 Du             1 RES                0.0000
     10 C          -24.9654 134.7082  30.9087 Du             1 RES                0.0000
     11 C          -22.4927 128.1580  25.2883 Du             1 RES                0.0000
     12 C          -25.1256 128.6642  29.5358 Du             1 RES                0.0000
     13 C          -22.6185 128.0347  27.7548 Du             1 RES                0.0000
     14 C          -25.2144 123.8368  25.5949 Du             1 RES                0.0000
     15 C          -21.7584 127.4818  25.5720 Du             1 RES                0.0000
     16 C          -22.5606 136.0726  31.4598 Du             1 RES                0.0000
     17 C          -18.5972 136.8783  34.4386 Du             1 RES                0.0000
     18 C          -17.6977 127.4431  32.4291 Du             1 RES                0.0000
     19 C          -17.5545 131.6333  29.6630 Du             1 RES                0.0000
     20 C          -16.5740 152.7538  -8.7769 Du             1 RES                0.0000
     21 C          -18.3910 150.8017  -4.8630 Du             1 RES                0.0000
     22 C          -18.5863 148.4712  -8.9806 Du             1 RES                0.0000
     23 C          -29.5995 134.6382  28.8139 Du             1 RES                0.0000
     24 C          -29.9953 132.1741  30.7922 Du             1 RES                0.0000
     25 C          -28.1120 136.8194  36.1946 Du             1 RES                0.0000
     26 C          -26.0532 134.2859  26.4549 Du             1 RES                0.0000
     27 C          -23.3230 126.2616  20.3640 Du             1 RES                0.0000
     28 C          -25.6567 134.5048  23.6066 Du             1 RES                0.0000
     29 C          -21.0731 140.0257  27.5185 Du             1 RES                0.0000
     30 C          -25.4622 141.7826  27.2571 Du             1 RES                0.0000
     31 C          -21.7561 144.4903  26.0946 Du             1 RES                0.0000
     32 C          -22.2767 125.5107  25.1991 Du             1 RES                0.0000
     33 C          -23.0721 133.3754  27.1410 Du             1 RES                0.0000
     34 C          -19.1663 136.2786  24.7694 Du             1 RES                0.0000
     35 C          -20.3004 133.7282  20.9452 Du             1 RES                0.0000
     36 C          -22.1090 138.0672  21.5168 Du             1 RES                0.0000
     37 C          -16.0384 130.2905  31.4367 Du             1 RES                0.0000
     38 C          -28.9975 133.8950  31.6260 Du             1 RES                0.0000
     39 C          -22.1853 122.1007  29.4930 Du             1 RES                0.0000
     40 C          -24.1873 119.5212  26.0639 Du             1 RES                0.0000
     41 C          -24.9901 124.1818  26.2941 Du             1 RES                0.0000
     42 C          -23.2478 135.2650  30.8433 Du             1 RES                0.0000
     43 C          -24.2834 129.1073  31.1231 Du             1 RES                0.0000
     44 C          -16.4544 127.2110  29.2024 Du             1 RES                0.0000
     45 C          -13.4825 125.4826  25.5416 Du             1 RES                0.0000
@<TRIPOS>BOND

@<TRIPOS>SUBSTRUCTURE
  1 RES 1
