#       Name:                plp ligand
#       Creating user name   jamesl
#       Creation time:       Thu Jul  7 08:43:10 2022


#       File generated by GOLD software.
#

@<TRIPOS>MOLECULE
plp ligand
    77    83     1
SMALL
AMBER


@<TRIPOS>ATOM
      1 C1           6.3601  -2.1675   2.7646 NONPOLAR       1 V4M               -0.0608
      2 C2           5.6171  -1.0695   2.3766 NONPOLAR       1 V4M               -0.0539
      3 C3           4.3201  -0.8985   2.7846 NONPOLAR       1 V4M               -0.0102
      4 C4           5.7551  -3.1065   3.6036 NONPOLAR       1 V4M               -0.0493
      5 C5           4.4331  -2.9125   4.0116 NONPOLAR       1 V4M                0.0427
      6 C6           3.7411  -1.8295   3.6066 NONPOLAR       1 V4M               -0.0101
      7 N1           2.3151  -3.1195   4.9966 NONPOLAR       1 V4M               -0.2814
      8 N2          -1.3599  -3.4655   5.2026 DONOR          1 V4M               -0.2541
      9 O1           3.9471  -4.7755   5.3846 ACCEPTOR       1 V4M               -0.2717
     10 C7           2.2961  -1.8385   4.1936 NONPOLAR       1 V4M                0.0417
     11 C8           3.6101  -3.7595   4.8766 NONPOLAR       1 V4M                0.2468
     12 C9           1.1321  -3.5315   5.7246 NONPOLAR       1 V4M                0.1037
     13 C10          0.7661  -2.4975   6.8026 NONPOLAR       1 V4M               -0.0169
     14 C11         -0.4529  -3.0455   7.5796 NONPOLAR       1 V4M                0.0270
     15 C12         -1.6099  -3.1505   6.5786 NONPOLAR       1 V4M                0.2182
     16 C13         -0.0239  -3.7035   4.7546 NONPOLAR       1 V4M                0.2388
     17 O2           0.1731  -4.0545   3.6406 ACCEPTOR       1 V4M               -0.2751
     18 O3          -2.7209  -2.9595   6.9416 ACCEPTOR       1 V4M               -0.2773
     19 H1           7.3786  -2.2962   2.4293                1 V4M                0.0623
     20 C23          3.5783   0.3322   2.3600 NONPOLAR       1 V4M                0.0123
     21 H4           6.3049  -3.9753   3.9341                1 V4M                0.0631
     22 H2          -2.1284  -3.5193   4.5494                1 V4M                0.1586
     23 H72          2.1176  -0.9711   4.8291                1 V4M                0.0521
     24 H73          1.5550  -1.8928   3.3962                1 V4M                0.0521
     25 H9           1.3315  -4.4880   6.2077                1 V4M                0.0608
     26 H102         1.6066  -2.3553   7.4819                1 V4M                0.0296
     27 H103         0.5076  -1.5491   6.3317                1 V4M                0.0296
     28 H112        -0.7182  -2.3649   8.3886                1 V4M                0.0366
     29 H113        -0.2222  -4.0309   7.9845                1 V4M                0.0366
     30 C24          3.0538   1.2157   3.3350 NONPOLAR       1 V4M               -0.0517
     31 C27          2.3961   2.3991   2.9663 NONPOLAR       1 V4M               -0.0615
     32 H242         3.1791   0.9898   4.3897                1 V4M                0.0630
     33 C25          3.4252   0.6807   0.9907 NONPOLAR       1 V4M                0.0834
     34 C26          2.7769   1.8789   0.6240 NONPOLAR       1 V4M               -0.0311
     35 O5           3.9185  -0.2126   0.0548 ACCEPTOR       1 V4M               -0.3358
     36 H262         2.6614   2.1567  -0.4179                1 V4M                0.0651
     37 C28          2.2610   2.7322   1.6111 NONPOLAR       1 V4M               -0.0596
     38 H272         2.0026   3.0630   3.7310                1 V4M                0.0623
     39 H281         1.7578   3.6517   1.3255                1 V4M                0.0624
     40 C29          3.7458  -0.0913  -1.3746 NONPOLAR       1 V4M                0.1316
     41 H291         4.2793  -0.9074  -1.8764                1 V4M                0.0675
     42 H292         4.1760   0.8548  -1.7244                1 V4M                0.0675
     43 C30          2.2784  -0.1614  -1.8219 NONPOLAR       1 V4M                0.2576
     44 N4           2.0630   0.3036  -3.1105 DONOR          1 V4M               -0.2052
     45 O6           1.3729  -0.5249  -1.0885 ACCEPTOR       1 V4M               -0.2732
     46 N5           0.8154   0.4066  -3.6537 ACCEPTOR       1 V4M               -0.1876
     47 H42          2.8675   0.5857  -3.6561                1 V4M                0.1787
     48 C31          0.1628   1.5105  -3.4951 NONPOLAR       1 V4M                0.0731
     49 C14         -1.2734   1.6327  -3.7259 NONPOLAR       1 V4M                0.1104
     50 HC           6.0697  -0.3273   1.7357                1 V4M                0.0629
     51 N3          -2.0314   0.6057  -4.1233 ACCEPTOR       1 V4M               -0.1789
     52 C15         -2.0633   2.8213  -3.5281 NONPOLAR       1 V4M                0.0265
     53 C17         -1.7397   4.1238  -3.1246 NONPOLAR       1 V4M               -0.0507
     54 C16         -3.3434   2.4542  -3.8247 NONPOLAR       1 V4M                0.0606
     55 N6          -3.3090   1.1178  -4.1817 NONPOLAR       1 V4M               -0.2199
     56 C21         -4.4507   0.2735  -4.5611 NONPOLAR       1 V4M                0.0596
     57 C18         -4.4146   3.3536  -3.7461 NONPOLAR       1 V4M               -0.0383
     58 H172        -0.7184   4.4072  -2.8899                1 V4M                0.0631
     59 H181        -5.4288   3.0499  -3.9843                1 V4M                0.0644
     60 C20         -4.1219   4.6743  -3.3449 NONPOLAR       1 V4M               -0.0603
     61 H201        -4.9229   5.4045  -3.2725                1 V4M                0.0623
     62 C22         -5.0669   0.6569  -5.8981 NONPOLAR       1 V4M               -0.0286
     63 C32         -6.3985   1.1066  -5.9653 NONPOLAR       1 V4M               -0.0574
     64 C33         -4.3087   0.5597  -7.0797 NONPOLAR       1 V4M               -0.0574
     65 H321        -6.9957   1.1804  -5.0609                1 V4M                0.0626
     66 C34         -6.9631   1.4649  -7.2005 NONPOLAR       1 V4M               -0.0619
     67 H331        -3.2807   0.2099  -7.0375                1 V4M                0.0626
     68 C35         -4.8733   0.9171  -8.3152 NONPOLAR       1 V4M               -0.0619
     69 C36         -6.2002   1.3723  -8.3755 NONPOLAR       1 V4M               -0.0623
     70 H342        -7.9901   1.8132  -7.2462                1 V4M                0.0623
     71 H352        -4.2827   0.8417  -9.2231                1 V4M                0.0623
     72 H361        -6.6363   1.6507  -9.3302                1 V4M                0.0623
     73 C19         -2.7946   5.0561  -3.0356 NONPOLAR       1 V4M               -0.0615
     74 H191        -2.5859   6.0765  -2.7267                1 V4M                0.0623
     75 HC1          0.6413   2.3997  -3.0821                1 V4M                0.0881
     76 HC2         -4.1143  -0.7701  -4.6103                1 V4M                0.0542
     77 HC3         -5.2062   0.3369  -3.7676                1 V4M                0.0542
@<TRIPOS>BOND
    1    1    2 ar    
    2    1    4 ar    
    3    2    3 ar    
    4    3    6 ar    
    5    4    5 ar    
    6    5    6 ar    
    7    5   11 1     
    8    6   10 1     
    9    7   10 1     
   10    7   11 am    
   11    7   12 1     
   12    8   15 am    
   13    8   16 am    
   14    9   11 2     
   15   12   13 1     
   16   12   16 1     
   17   13   14 1     
   18   14   15 1     
   19   15   18 2     
   20   16   17 2     
   21   19    1 1     
   22   20    3 1     
   23   21    4 1     
   24   22    8 1     
   25   23   10 1     
   26   24   10 1     
   27   25   12 1     
   28   26   13 1     
   29   27   13 1     
   30   28   14 1     
   31   29   14 1     
   32   30   20 ar    
   33   31   30 ar    
   34   32   30 1     
   35   33   20 ar    
   36   34   33 ar    
   37   35   33 1     
   38   36   34 1     
   39   37   31 ar    
   40   38   31 1     
   41   37   34 ar    
   42   39   37 1     
   43   40   35 1     
   44   41   40 1     
   45   42   40 1     
   46   43   40 1     
   47   44   43 am    
   48   45   43 2     
   49   46   44 1     
   50   47   44 1     
   51   48   46 2     
   52   49   48 1     
   53   50    2 1     
   54   51   49 ar    
   55   52   49 ar    
   56   53   52 ar    
   57   54   52 ar    
   58   55   51 ar    
   59   56   55 1     
   60   57   54 ar    
   61   55   54 ar    
   62   58   53 1     
   63   59   57 1     
   64   60   57 ar    
   65   61   60 1     
   66   62   56 1     
   67   63   62 ar    
   68   64   62 ar    
   69   65   63 1     
   70   66   63 ar    
   71   67   64 1     
   72   68   64 ar    
   73   69   66 ar    
   74   70   66 1     
   75   71   68 1     
   76   69   68 ar    
   77   72   69 1     
   78   73   53 ar    
   79   74   73 1     
   80   73   60 ar    
   81   75   48 1     
   82   76   56 1     
   83   77   56 1     
@<TRIPOS>SUBSTRUCTURE
      1 V4M            1
@<TRIPOS>SET
DONOR_HYDROGENS      STATIC     ATOMS    <user>   **** ""
2 22 47
ATOM$RED        STATIC     ATOMS    COLORGROUP SYSTEM
2 22 47
