@<TRIPOS>MOLECULE
V4M
   77    83     1     0     0
SMALL
bcc


@<TRIPOS>ATOM
      1 C1         -13.9310   129.7640    26.7440 ca       595 V4M      -0.147000
      2 C2         -14.5810   130.8590    26.1970 ca       595 V4M      -0.076000
      3 C3         -15.9650   131.0960    26.4190 cp       595 V4M      -0.016000
      4 C4         -14.5920   128.9410    27.6290 ca       595 V4M      -0.048000
      5 C5         -15.9510   129.1360    27.8570 ca       595 V4M      -0.158600
      6 C6         -16.6010   130.2370    27.3670 ca       595 V4M      -0.060300
      7 N1         -18.1880   129.0720    28.6290 n        595 V4M      -0.465800
      8 N2         -21.9180   128.7810    29.1300 ns       595 V4M      -0.598500
      9 O1         -16.8190   127.2510    29.2280 o        595 V4M      -0.601500
     10 C7         -18.1210   130.3350    27.8330 c3       595 V4M       0.120300
     11 C8         -16.9620   128.3670    28.6840 c        595 V4M       0.720100
     12 C9         -19.4700   128.6770    29.3600 c3       595 V4M       0.049700
     13 C10        -19.7220   129.5810    30.6030 c3       595 V4M      -0.088400
     14 C11        -20.9950   129.1090    31.3580 c3       595 V4M      -0.156400
     15 C12        -22.2020   129.0340    30.4610 c        595 V4M       0.701500
     16 C13        -20.7400   128.6210    28.4750 c        595 V4M       0.671500
     17 O2         -20.7540   128.4770    27.3090 o        595 V4M      -0.601500
     18 O3         -23.3680   129.1670    30.8130 o        595 V4M      -0.602500
     19 H1         -12.9020   129.5160    26.5030 ha       595 V4M       0.141000
     20 C23        -16.6170   132.3180    25.7060 cp       595 V4M      -0.063000
     21 H4         -14.0850   128.1110    28.1130 ha       595 V4M       0.156000
     22 H2         -22.7590   128.9820    28.6010 hn       595 V4M       0.339500
     23 H72        -18.2920   131.1130    28.5870 h1       595 V4M       0.074700
     24 H73        -18.9110   130.4400    27.0790 h1       595 V4M       0.074700
     25 H9         -19.4520   127.6420    29.7230 h1       595 V4M       0.113700
     26 H102       -18.8930   129.6130    31.3200 hc       595 V4M       0.068200
     27 H103       -19.7860   130.6220    30.2650 hc       595 V4M       0.068200
     28 H112       -21.2810   129.7900    32.1690 hc       595 V4M       0.089200
     29 H113       -20.8650   128.1590    31.8920 hc       595 V4M       0.089200
     30 C24        -17.3080   133.3120    26.5460 ca       595 V4M      -0.095000
     31 C27        -17.8660   134.4560    25.9080 ca       595 V4M      -0.156000
     32 H242       -17.2480   133.1140    27.6120 ha       595 V4M       0.140000
     33 C25        -16.5210   132.5050    24.3480 ca       595 V4M       0.121100
     34 C26        -17.0100   133.6730    23.7600 ca       595 V4M      -0.194000
     35 O5         -15.6730   131.6930    23.6280 os       595 V4M      -0.323900
     36 H262       -16.8750   133.9350    22.7150 ha       595 V4M       0.156000
     37 C28        -17.6280   134.6490    24.5560 ca       595 V4M      -0.087000
     38 H272       -18.3220   135.3080    26.4040 ha       595 V4M       0.139000
     39 H281       -17.8720   135.6090    24.1110 ha       595 V4M       0.142000
     40 C29        -15.3150   131.8450    22.2020 c3       595 V4M       0.050400
     41 H291       -14.5290   131.0970    22.0390 h1       595 V4M       0.093700
     42 H292       -15.0230   132.8930    22.0580 h1       595 V4M       0.093700
     43 C30        -16.4180   131.4880    21.2680 c        595 V4M       0.603100
     44 N4         -16.2020   130.2860    20.5610 ns       595 V4M      -0.300900
     45 O6         -17.3560   132.1910    20.9960 o        595 V4M      -0.590100
     46 N5         -17.0410   129.7210    19.5270 n2       595 V4M      -0.468300
     47 H42        -15.4810   129.7170    20.9870 hn       595 V4M       0.359500
     48 C31        -17.1830   130.5380    18.4600 ce       595 V4M       0.352900
     49 C14        -17.9710   130.1580    17.3880 cc       595 V4M       0.299600
     50 HC         -14.1070   131.5290    25.4860 ha       595 V4M       0.143000
     51 N3         -18.2750   131.1510    16.4950 nd       595 V4M      -0.494100
     52 C15        -18.4130   128.8800    16.9750 ca       595 V4M      -0.181900
     53 C17        -18.2760   127.6710    17.6390 ca       595 V4M      -0.052000
     54 C16        -19.0470   129.0160    15.8240 ca       595 V4M      -0.056200
     55 N6         -18.9170   130.3620    15.4730 na       595 V4M       0.101900
     56 C21        -19.5160   130.9290    14.3220 c3       595 V4M       0.107600
     57 C18        -19.8930   127.9630    15.3810 ca       595 V4M      -0.141000
     58 H172       -17.7630   127.6060    18.5950 ha       595 V4M       0.157000
     59 H181       -20.4010   128.1020    14.4310 ha       595 V4M       0.134000
     60 C20        -19.8630   126.7340    16.0720 ca       595 V4M      -0.100000
     61 H201       -20.3610   125.9210    15.5530 ha       595 V4M       0.132000
     62 C22        -18.6200   130.7890    13.0730 ca       595 V4M      -0.126300
     63 C32        -17.9850   131.9260    12.5890 ca       595 V4M      -0.105500
     64 C33        -18.4550   129.5950    12.3090 ca       595 V4M      -0.105500
     65 H321       -17.9360   132.8400    13.1730 ha       595 V4M       0.139000
     66 C34        -17.2740   131.9990    11.4020 ca       595 V4M      -0.133500
     67 H331       -18.9530   128.6430    12.4710 ha       595 V4M       0.139000
     68 C35        -17.6380   129.6490    11.1520 ca       595 V4M      -0.133500
     69 C36        -17.0950   130.8340    10.6650 ca       595 V4M      -0.118000
     70 H342       -16.9170   132.9610    11.0450 ha       595 V4M       0.134000
     71 H352       -17.4930   128.7470    10.5650 ha       595 V4M       0.134000
     72 H361       -16.4670   130.8570     9.7790 ha       595 V4M       0.133000
     73 C19        -19.1000   126.5890    17.2330 ca       595 V4M      -0.162000
     74 H191       -19.1310   125.6930    17.8470 ha       595 V4M       0.135000
     75 HC1        -16.9510   131.6040    18.5000 h4       595 V4M       0.044800
     76 HC2        -20.4920   130.4400    14.2090 h1       595 V4M       0.073200
     77 HC3        -19.7440   131.9930    14.4600 h1       595 V4M       0.073200
@<TRIPOS>BOND
     1     1     2 ar  
     2     1     4 ar  
     3     1    19 1   
     4     2     3 ar  
     5     2    50 1   
     6     3     6 ar  
     7     3    20 1   
     8     4     5 ar  
     9     4    21 1   
    10     5     6 ar  
    11     5    11 1   
    12     6    10 1   
    13     7    10 1   
    14     7    11 1   
    15     7    12 1   
    16     8    15 1   
    17     8    16 1   
    18     8    22 1   
    19     9    11 2   
    20    10    23 1   
    21    10    24 1   
    22    12    13 1   
    23    12    16 1   
    24    12    25 1   
    25    13    14 1   
    26    13    26 1   
    27    13    27 1   
    28    14    15 1   
    29    14    28 1   
    30    14    29 1   
    31    15    18 2   
    32    16    17 2   
    33    20    30 ar  
    34    20    33 ar  
    35    30    31 ar  
    36    30    32 1   
    37    31    37 ar  
    38    31    38 1   
    39    33    34 ar  
    40    33    35 1   
    41    34    36 1   
    42    34    37 ar  
    43    35    40 1   
    44    37    39 1   
    45    40    41 1   
    46    40    42 1   
    47    40    43 1   
    48    43    44 1   
    49    43    45 2   
    50    44    46 1   
    51    44    47 1   
    52    46    48 2   
    53    48    49 1   
    54    48    75 1   
    55    49    51 2   
    56    49    52 1   
    57    51    55 1   
    58    52    53 ar  
    59    52    54 ar  
    60    53    58 1   
    61    53    73 ar  
    62    54    55 1   
    63    54    57 ar  
    64    55    56 1   
    65    56    62 1   
    66    56    76 1   
    67    56    77 1   
    68    57    59 1   
    69    57    60 ar  
    70    60    61 1   
    71    60    73 ar  
    72    62    63 ar  
    73    62    64 ar  
    74    63    65 1   
    75    63    66 ar  
    76    64    67 1   
    77    64    68 ar  
    78    66    69 ar  
    79    66    70 1   
    80    68    69 ar  
    81    68    71 1   
    82    69    72 1   
    83    73    74 1   
@<TRIPOS>SUBSTRUCTURE
     1 V4M         1 TEMP              0 ****  ****    0 ROOT
