@<TRIPOS>MOLECULE
V4M
   77    83     1     0     0
SMALL
bcc


@<TRIPOS>ATOM
      1 C1         -14.8960   130.2590    25.8270 ca       595 V4M      -0.147000
      2 C2         -15.3660   131.5580    25.7770 ca       595 V4M      -0.088000
      3 C3         -16.5050   131.9640    26.5260 cp       595 V4M      -0.015000
      4 C4         -15.4900   129.2900    26.6650 ca       595 V4M      -0.050000
      5 C5         -16.5690   129.7500    27.3870 ca       595 V4M      -0.157600
      6 C6         -17.0980   131.0340    27.3610 ca       595 V4M      -0.050300
      7 N1         -18.4570   129.7520    28.7440 n        595 V4M      -0.465800
      8 N2         -22.0520   128.7880    29.3030 ns       595 V4M      -0.579500
      9 O1         -17.2530   127.7980    28.6560 o        595 V4M      -0.603500
     10 C7         -18.3710   131.1350    28.1850 c3       595 V4M       0.121300
     11 C8         -17.4530   128.9840    28.3460 c        595 V4M       0.720100
     12 C9         -19.6780   129.3590    29.5540 c3       595 V4M       0.048700
     13 C10        -20.1570   130.3530    30.6640 c3       595 V4M      -0.089400
     14 C11        -21.2920   129.6820    31.4470 c3       595 V4M      -0.158400
     15 C12        -22.4380   129.2040    30.5020 c        595 V4M       0.711500
     16 C13        -20.8490   128.9150    28.7040 c        595 V4M       0.685500
     17 O2         -20.7090   128.6530    27.4840 o        595 V4M      -0.628500
     18 O3         -23.5900   129.0210    30.8290 o        595 V4M      -0.620500
     19 H1         -13.9390   129.9660    25.4050 ha       595 V4M       0.140000
     20 C23        -16.7890   133.3750    26.6300 cp       595 V4M      -0.069000
     21 H4         -15.1060   128.2760    26.6120 ha       595 V4M       0.155000
     22 H2         -22.8030   128.3420    28.7900 hn       595 V4M       0.359500
     23 H72        -18.3340   131.8280    29.0340 h1       595 V4M       0.076200
     24 H73        -19.1950   131.3150    27.4840 h1       595 V4M       0.076200
     25 H9         -19.3250   128.4470    30.0500 h1       595 V4M       0.111700
     26 H102       -19.3130   130.6060    31.3180 hc       595 V4M       0.069700
     27 H103       -20.5170   131.2500    30.1440 hc       595 V4M       0.069700
     28 H112       -21.8880   130.3680    32.0620 hc       595 V4M       0.086700
     29 H113       -20.8700   128.8820    32.0680 hc       595 V4M       0.086700
     30 C24        -16.5510   134.0160    27.8660 ca       595 V4M      -0.091000
     31 C27        -16.5840   135.4210    27.9640 ca       595 V4M      -0.158000
     32 H242       -16.2420   133.4940    28.7670 ha       595 V4M       0.141000
     33 C25        -17.0630   134.2220    25.5310 ca       595 V4M       0.123100
     34 C26        -17.0510   135.5780    25.6020 ca       595 V4M      -0.196000
     35 O5         -17.2260   133.6520    24.2970 os       595 V4M      -0.318900
     36 H262       -17.1700   136.2280    24.7400 ha       595 V4M       0.160000
     37 C28        -16.8900   136.1980    26.7620 ca       595 V4M      -0.089000
     38 H272       -16.4280   135.9100    28.9210 ha       595 V4M       0.138000
     39 H281       -16.7960   137.2770    26.8440 ha       595 V4M       0.140000
     40 C29        -16.1840   133.8730    23.2700 c3       595 V4M       0.052400
     41 H291       -15.2040   133.5110    23.6040 h1       595 V4M       0.092200
     42 H292       -16.1070   134.9560    23.1090 h1       595 V4M       0.092200
     43 C30        -16.5090   133.2040    21.9330 c        595 V4M       0.606100
     44 N4         -17.2560   133.9540    21.0710 ns       595 V4M      -0.305900
     45 O6         -15.9940   132.1100    21.7160 o        595 V4M      -0.599100
     46 N5         -17.6930   133.6360    19.8120 n2       595 V4M      -0.457300
     47 H42        -17.4460   134.8670    21.4660 hn       595 V4M       0.375500
     48 C31        -18.8910   133.1150    19.6830 ce       595 V4M       0.342900
     49 C14        -19.5000   132.8290    18.3590 cc       595 V4M       0.284600
     50 HC         -14.8250   132.3170    25.2210 ha       595 V4M       0.141000
     51 N3         -20.7570   132.3610    18.3030 nd       595 V4M      -0.471100
     52 C15        -19.1000   133.3580    17.0790 ca       595 V4M      -0.193900
     53 C17        -17.7670   133.8840    16.5850 ca       595 V4M      -0.065000
     54 C16        -20.0200   133.0270    16.1550 ca       595 V4M      -0.054200
     55 N6         -20.9900   132.3800    16.8900 na       595 V4M       0.105900
     56 C21        -22.1990   131.6610    16.3230 c3       595 V4M       0.100600
     57 C18        -19.7680   133.0500    14.7490 ca       595 V4M      -0.139000
     58 H172       -16.9680   134.0640    17.2970 ha       595 V4M       0.142000
     59 H181       -20.4910   132.7260    14.0070 ha       595 V4M       0.137000
     60 C20        -18.5900   133.6120    14.2810 ca       595 V4M      -0.103000
     61 H201       -18.3440   133.6840    13.2250 ha       595 V4M       0.132000
     62 C22        -22.9960   130.9050    17.3630 ca       595 V4M      -0.123300
     63 C32        -22.4520   129.9550    18.1710 ca       595 V4M      -0.105500
     64 C33        -24.3590   131.3050    17.5080 ca       595 V4M      -0.105500
     65 H321       -21.3810   129.8180    18.0600 ha       595 V4M       0.144500
     66 C34        -23.2320   129.1370    18.9990 ca       595 V4M      -0.136500
     67 H331       -24.7630   132.1400    16.9430 ha       595 V4M       0.144500
     68 C35        -25.1380   130.6060    18.3550 ca       595 V4M      -0.136500
     69 C36        -24.6290   129.5620    19.1380 ca       595 V4M      -0.119000
     70 H342       -22.6970   128.4080    19.6010 ha       595 V4M       0.132500
     71 H352       -26.1740   130.9260    18.3990 ha       595 V4M       0.132500
     72 H361       -25.2700   128.9850    19.7970 ha       595 V4M       0.131000
     73 C19        -17.5390   133.9430    15.1740 ca       595 V4M      -0.157000
     74 H191       -16.6130   134.3180    14.7500 ha       595 V4M       0.134000
     75 HC1        -19.4910   132.7040    20.4990 h4       595 V4M       0.035800
     76 HC2        -22.8430   132.4370    15.8910 h1       595 V4M       0.083200
     77 HC3        -21.8990   131.0040    15.4970 h1       595 V4M       0.083200
@<TRIPOS>BOND
     1     1     2 ar  
     2     1     4 ar  
     3     1    19 1   
     4     2     3 ar  
     5     2    50 1   
     6     3     6 ar  
     7     3    20 1   
     8     4     5 ar  
     9     4    21 1   
    10     5     6 ar  
    11     5    11 1   
    12     6    10 1   
    13     7    10 1   
    14     7    11 1   
    15     7    12 1   
    16     8    15 1   
    17     8    16 1   
    18     8    22 1   
    19     9    11 2   
    20    10    23 1   
    21    10    24 1   
    22    12    13 1   
    23    12    16 1   
    24    12    25 1   
    25    13    14 1   
    26    13    26 1   
    27    13    27 1   
    28    14    15 1   
    29    14    28 1   
    30    14    29 1   
    31    15    18 2   
    32    16    17 2   
    33    20    30 ar  
    34    20    33 ar  
    35    30    31 ar  
    36    30    32 1   
    37    31    37 ar  
    38    31    38 1   
    39    33    34 ar  
    40    33    35 1   
    41    34    36 1   
    42    34    37 ar  
    43    35    40 1   
    44    37    39 1   
    45    40    41 1   
    46    40    42 1   
    47    40    43 1   
    48    43    44 1   
    49    43    45 2   
    50    44    46 1   
    51    44    47 1   
    52    46    48 2   
    53    48    49 1   
    54    48    75 1   
    55    49    51 2   
    56    49    52 1   
    57    51    55 1   
    58    52    53 ar  
    59    52    54 ar  
    60    53    58 1   
    61    53    73 ar  
    62    54    55 1   
    63    54    57 ar  
    64    55    56 1   
    65    56    62 1   
    66    56    76 1   
    67    56    77 1   
    68    57    59 1   
    69    57    60 ar  
    70    60    61 1   
    71    60    73 ar  
    72    62    63 ar  
    73    62    64 ar  
    74    63    65 1   
    75    63    66 ar  
    76    64    67 1   
    77    64    68 ar  
    78    66    69 ar  
    79    66    70 1   
    80    68    69 ar  
    81    68    71 1   
    82    69    72 1   
    83    73    74 1   
@<TRIPOS>SUBSTRUCTURE
     1 V4M         1 TEMP              0 ****  ****    0 ROOT
