@<TRIPOS>MOLECULE
Cpptraj Generated mol2 file.
   50    53     1     0     0
SMALL
USER_CHARGES


@<TRIPOS>ATOM
      1 C1        -15.2080  131.2920   25.3380 ca         1 V4M     -0.132000
      2 C2        -16.0850  132.4170   25.1510 ca         1 V4M     -0.098300
      3 C3        -17.4070  132.2510   25.4160 ca         1 V4M     -0.104000
      4 C4        -15.6440  130.0760   25.9780 ca         1 V4M     -0.054000
      5 C5        -16.8500  130.2180   26.6320 ca         1 V4M     -0.147600
      6 C6        -17.7590  131.1570   26.2180 ca         1 V4M     -0.071300
      7 N1        -18.8620  129.6280   27.6200 n          1 V4M     -0.465800
      8 N2        -22.4090  129.0060   28.9020 ns         1 V4M     -0.598500
      9 N3        -16.0370  134.1700   23.4200 ns         1 V4M     -0.536900
     10 O1        -17.0570  128.3330   28.0980 o          1 V4M     -0.599500
     11 C7        -19.1140  130.9130   26.9180 c3         1 V4M      0.120300
     12 C8        -17.5510  129.2610   27.5270 c          1 V4M      0.720100
     13 C9        -19.9210  129.0530   28.6270 c3         1 V4M      0.050700
     14 C10       -20.0400  129.9910   29.8330 c3         1 V4M     -0.088400
     15 C11       -20.9810  129.4170   30.8430 c3         1 V4M     -0.156400
     16 C12       -22.3420  129.2020   30.2460 c          1 V4M      0.701500
     17 C13       -21.3260  128.8720   28.0940 c          1 V4M      0.671500
     18 C14       -15.4790  133.6830   24.7240 c3         1 V4M      0.126300
     19 C15       -15.9980  133.4030   22.2690 c          1 V4M      0.620100
     20 O2        -21.5510  128.3480   27.0540 o          1 V4M     -0.601500
     21 C16       -16.7960  133.8970   21.0200 c3         1 V4M      0.405900
     22 C17       -16.8440  132.9950   19.8150 ca         1 V4M     -0.165300
     23 C18       -16.1920  133.3090   18.5570 ca         1 V4M     -0.080000
     24 C19       -16.1270  132.3620   17.5670 ca         1 V4M     -0.130500
     25 C20       -16.8570  131.0870   17.7250 ca         1 V4M      0.038400
     26 C21       -17.5470  130.8210   18.9140 ca         1 V4M     -0.130500
     27 C22       -17.4960  131.7900   19.9730 ca         1 V4M     -0.080000
     28 F1        -18.0480  134.1190   21.4300 f          1 V4M     -0.221300
     29 F2        -16.3130  135.0450   20.5380 f          1 V4M     -0.221300
     30 O3        -23.3570  129.3370   30.8810 o          1 V4M     -0.601500
     31 O4        -15.2950  132.3960   22.2990 o          1 V4M     -0.578100
     32 Cl1       -16.8620  129.9850   16.4400 cl         1 V4M     -0.081400
     33 H1        -14.2060  131.4030   24.9340 ha         1 V4M      0.139000
     34 H3        -18.2020  132.9810   25.2980 ha         1 V4M      0.164000
     35 H4        -15.0100  129.2080   26.1350 ha         1 V4M      0.157000
     36 H2        -23.3060  129.0490   28.4340 hn         1 V4M      0.339500
     37 HN3       -16.6670  134.9620   23.4450 hn         1 V4M      0.323500
     38 H72       -19.2970  131.6370   27.7210 h1         1 V4M      0.076700
     39 H73       -19.9410  130.9860   26.2020 h1         1 V4M      0.076700
     40 H9        -19.6110  128.0440   28.9250 h1         1 V4M      0.113700
     41 H102      -20.3720  131.0040   29.5720 hc         1 V4M      0.069200
     42 H103      -19.0160  130.2350   30.1410 hc         1 V4M      0.069200
     43 H112      -20.5390  128.5060   31.2650 hc         1 V4M      0.089200
     44 H113      -21.1930  130.1000   31.6750 hc         1 V4M      0.089200
     45 H142      -14.3880  133.6020   24.6390 h1         1 V4M      0.076700
     46 H143      -15.8050  134.4200   25.4680 h1         1 V4M      0.076700
     47 H18       -15.7250  134.2860   18.4840 ha         1 V4M      0.160000
     48 H19       -15.6640  132.6160   16.6190 ha         1 V4M      0.155000
     49 H21       -18.0740  129.8810   19.0510 ha         1 V4M      0.155000
     50 H22       -17.9370  131.4900   20.9190 ha         1 V4M      0.160000
@<TRIPOS>BOND
    1    26    27 1
    2    25    26 1
    3    25    32 1
    4    24    25 1
    5    23    24 1
    6    22    23 1
    7    22    27 1
    8    21    22 1
    9    21    28 1
   10    21    29 1
   11    19    21 1
   12    19    31 1
   13    17    20 1
   14    16    30 1
   15    15    16 1
   16    14    15 1
   17    13    14 1
   18    13    17 1
   19    10    12 1
   20     9    18 1
   21     9    19 1
   22     8    16 1
   23     8    17 1
   24     7    11 1
   25     7    12 1
   26     7    13 1
   27     6    11 1
   28     5     6 1
   29     5    12 1
   30     4     5 1
   31     3     6 1
   32     2     3 1
   33     2    18 1
   34     1     2 1
   35     1     4 1
   36    27    50 1
   37    26    49 1
   38    24    48 1
   39    23    47 1
   40    18    45 1
   41    18    46 1
   42    15    43 1
   43    15    44 1
   44    14    41 1
   45    14    42 1
   46    13    40 1
   47    11    38 1
   48    11    39 1
   49     9    37 1
   50     8    36 1
   51     4    35 1
   52     3    34 1
   53     1    33 1
@<TRIPOS>SUBSTRUCTURE
      1 V4M               1 ****               0 ****  **** 
