@<TRIPOS>MOLECULE
V4M
   77    83     1     0     0
SMALL
bcc


@<TRIPOS>ATOM
      1 C1         -15.0260   130.1280    26.3900 ca         1 V4M      -0.147000
      2 C2         -15.8260   131.1560    25.9320 ca         1 V4M      -0.076000
      3 C3         -17.1320   131.2820    26.3290 cp         1 V4M      -0.016000
      4 C4         -15.5810   129.2140    27.2890 ca         1 V4M      -0.048000
      5 C5         -16.9130   129.3610    27.6840 ca         1 V4M      -0.158600
      6 C6         -17.6620   130.3760    27.2100 ca         1 V4M      -0.060300
      7 N1         -19.0190   129.1030    28.6820 n          1 V4M      -0.465800
      8 N2         -22.6880   128.9700    29.1110 ns         1 V4M      -0.598500
      9 O1         -17.3000   127.5680    29.1760 o          1 V4M      -0.601500
     10 C7         -19.1060   130.3270    27.7980 c3         1 V4M       0.120300
     11 C8         -17.6910   128.5290    28.6030 c          1 V4M       0.720100
     12 C9         -20.1800   128.6750    29.4360 c3         1 V4M       0.049700
     13 C10        -20.3990   129.5790    30.6610 c3         1 V4M      -0.088400
     14 C11        -21.6020   129.0120    31.4490 c3         1 V4M      -0.156400
     15 C12        -22.8260   129.1150    30.5310 c          1 V4M       0.701500
     16 C13        -21.4050   128.7080    28.5400 c          1 V4M       0.671500
     17 O2         -21.3060   128.4960    27.3790 o          1 V4M      -0.601500
     18 O3         -23.8940   129.3270    30.9950 o          1 V4M      -0.602500
     19 H1         -14.0010   130.0340    26.0630 ha         1 V4M       0.141000
     20 C23        -17.9390   132.4410    25.8260 cp         1 V4M      -0.063000
     21 H4         -14.9850   128.4000    27.6740 ha         1 V4M       0.156000
     22 H2         -23.4990   129.0520    28.5140 hn         1 V4M       0.339500
     23 H72        -19.3330   131.2220    28.3760 h1         1 V4M       0.074700
     24 H73        -19.8400   130.1800    27.0060 h1         1 V4M       0.074700
     25 H9         -20.0200   127.6520    29.7770 h1         1 V4M       0.113700
     26 H102       -19.5080   129.5750    31.2900 hc         1 V4M       0.068200
     27 H103       -20.6170   130.5960    30.3360 hc         1 V4M       0.068200
     28 H112       -21.7650   129.5950    32.3560 hc         1 V4M       0.089200
     29 H113       -21.4190   127.9690    31.7070 hc         1 V4M       0.089200
     30 C24        -18.8910   133.0620    26.6710 ca         1 V4M      -0.095000
     31 C27        -19.6260   134.1770    26.2430 ca         1 V4M      -0.156000
     32 H242       -19.0440   132.6860    27.6780 ha         1 V4M       0.140000
     33 C25        -17.7420   132.9840    24.5280 ca         1 V4M       0.121100
     34 C26        -18.4720   134.1150    24.1060 ca         1 V4M      -0.194000
     35 O5         -16.8290   132.3420    23.7080 os         1 V4M      -0.323900
     36 H262       -18.3250   134.5410    23.1190 ha         1 V4M       0.156000
     37 C28        -19.4140   134.7060    24.9610 ca         1 V4M      -0.087000
     38 H272       -20.3510   134.6380    26.9080 ha         1 V4M       0.139000
     39 H281       -19.9790   135.5730    24.6320 ha         1 V4M       0.142000
     40 C29        -16.1090   132.9690    22.6240 c3         1 V4M       0.050400
     41 H291       -15.1220   132.5020    22.5240 h1         1 V4M       0.093700
     42 H292       -15.9560   134.0330    22.8410 h1         1 V4M       0.093700
     43 C30        -16.8150   132.8400    21.2660 c          1 V4M       0.603100
     44 N4         -16.3930   133.7670    20.3250 ns         1 V4M      -0.300900
     45 O6         -17.7140   132.0420    21.0530 o          1 V4M      -0.590100
     46 N5         -16.9650   133.8710    19.0910 n2         1 V4M      -0.468300
     47 H42        -15.6400   134.3940    20.5780 hn         1 V4M       0.359500
     48 C31        -18.2520   133.7960    18.9990 ce         1 V4M       0.352900
     49 C14        -18.9530   133.5590    17.7400 cc         1 V4M       0.299600
     50 HC         -15.4130   131.8790    25.2440 ha         1 V4M       0.143000
     51 N3         -20.1220   132.9130    17.6750 nd         1 V4M      -0.494100
     52 C15        -18.5270   134.0050    16.4380 ca         1 V4M      -0.181900
     53 C17        -17.4000   134.7090    15.9940 ca         1 V4M      -0.052000
     54 C16        -19.5060   133.5950    15.5810 ca         1 V4M      -0.056200
     55 N6         -20.4600   132.9380    16.3400 na         1 V4M       0.101900
     56 C21        -21.7140   132.3410    15.8600 c3         1 V4M       0.107600
     57 C18        -19.4480   133.8500    14.2050 ca         1 V4M      -0.141000
     58 H172       -16.6260   135.0320    16.6830 ha         1 V4M       0.157000
     59 H181       -20.2330   133.5190    13.5330 ha         1 V4M       0.134000
     60 C20        -18.3240   134.5550    13.7250 ca         1 V4M      -0.100000
     61 H201       -18.2380   134.7720    12.6640 ha         1 V4M       0.132000
     62 C22        -22.9500   132.8930    16.5550 ca         1 V4M      -0.126300
     63 C32        -22.9500   133.1030    17.9470 ca         1 V4M      -0.105500
     64 C33        -24.1050   133.1940    15.8100 ca         1 V4M      -0.105500
     65 H321       -22.0660   132.8690    18.5340 ha         1 V4M       0.139000
     66 C34        -24.0900   133.6180    18.5850 ca         1 V4M      -0.133500
     67 H331       -24.1150   133.0320    14.7350 ha         1 V4M       0.139000
     68 C35        -25.2460   133.7080    16.4480 ca         1 V4M      -0.133500
     69 C36        -25.2380   133.9230    17.8350 ca         1 V4M      -0.118000
     70 H342       -24.0840   133.7800    19.6580 ha         1 V4M       0.134000
     71 H352       -26.1330   133.9400    15.8670 ha         1 V4M       0.134000
     72 H361       -26.1190   134.3220    18.3280 ha         1 V4M       0.133000
     73 C19        -17.3080   134.9820    14.6130 ca         1 V4M      -0.162000
     74 H191       -16.4500   135.5250    14.2280 ha         1 V4M       0.135000
     75 HC1        -18.8870   133.8110    19.8860 h4         1 V4M       0.044800
     76 HC2        -21.8000   132.5240    14.7820 h1         1 V4M       0.073200
     77 HC3        -21.6560   131.2550    16.0040 h1         1 V4M       0.073200
@<TRIPOS>BOND
     1     1     2 ar  
     2     1     4 ar  
     3     1    19 1   
     4     2     3 ar  
     5     2    50 1   
     6     3     6 ar  
     7     3    20 1   
     8     4     5 ar  
     9     4    21 1   
    10     5     6 ar  
    11     5    11 1   
    12     6    10 1   
    13     7    10 1   
    14     7    11 1   
    15     7    12 1   
    16     8    15 1   
    17     8    16 1   
    18     8    22 1   
    19     9    11 2   
    20    10    23 1   
    21    10    24 1   
    22    12    13 1   
    23    12    16 1   
    24    12    25 1   
    25    13    14 1   
    26    13    26 1   
    27    13    27 1   
    28    14    15 1   
    29    14    28 1   
    30    14    29 1   
    31    15    18 2   
    32    16    17 2   
    33    20    30 ar  
    34    20    33 ar  
    35    30    31 ar  
    36    30    32 1   
    37    31    37 ar  
    38    31    38 1   
    39    33    34 ar  
    40    33    35 1   
    41    34    36 1   
    42    34    37 ar  
    43    35    40 1   
    44    37    39 1   
    45    40    41 1   
    46    40    42 1   
    47    40    43 1   
    48    43    44 1   
    49    43    45 2   
    50    44    46 1   
    51    44    47 1   
    52    46    48 2   
    53    48    49 1   
    54    48    75 1   
    55    49    51 2   
    56    49    52 1   
    57    51    55 1   
    58    52    53 ar  
    59    52    54 ar  
    60    53    58 1   
    61    53    73 ar  
    62    54    55 1   
    63    54    57 ar  
    64    55    56 1   
    65    56    62 1   
    66    56    76 1   
    67    56    77 1   
    68    57    59 1   
    69    57    60 ar  
    70    60    61 1   
    71    60    73 ar  
    72    62    63 ar  
    73    62    64 ar  
    74    63    65 1   
    75    63    66 ar  
    76    64    67 1   
    77    64    68 ar  
    78    66    69 ar  
    79    66    70 1   
    80    68    69 ar  
    81    68    71 1   
    82    69    72 1   
    83    73    74 1   
@<TRIPOS>SUBSTRUCTURE
     1 V4M         1 TEMP              0 ****  ****    0 ROOT
